13   
Scan Cycle 1/20 ; Dihedral 1-3-6-2 = 105.55, Dihedral 12-2-6-3 = 59.92, Dihedral 7-1-3-6 = -71.24, Dihedral 13-1-6-3 = -40.00 ; Iteration 3 Energy -681.04500370
C        1.8829453103    0.3826126696    1.3957160752
C       -0.0180657875   -1.5895615594   -1.0620062856
N        0.6399754932   -0.3732684982    1.2386675988
O        0.1411495718    0.9899072547   -0.8542526776
O       -1.6618126573   -0.1788483467    0.3787960037
S       -0.3172555170   -0.1394602482   -0.1037353480
H        2.6369727711    0.0383562489    0.6873098073
H        2.2496160619    0.1829211507    2.4017498812
H        1.7433696319    1.4553385325    1.2571439626
H       -0.6310382511   -1.5003370273   -1.9587998364
H        1.0366573708   -1.6283256035   -1.3300136738
H       -0.3104950099   -2.4592990086   -0.4779947129
H        0.0228808452    0.0672643959    1.9285192503
13   
Scan Cycle 2/20 ; Dihedral 1-3-6-2 = 105.55, Dihedral 12-2-6-3 = 59.92, Dihedral 7-1-3-6 = -71.24, Dihedral 13-1-6-3 = -35.79 ; Iteration 34 Energy -681.04910446
C        1.8781824471    0.3934887244    1.3856560228
C       -0.0178643963   -1.5863410667   -1.0562997667
N        0.6349807711   -0.3614163071    1.2398958202
O        0.1652413974    0.9893286446   -0.8606305674
O       -1.6612945361   -0.1576930391    0.3634493080
S       -0.3114885397   -0.1292533338   -0.1061183538
H        2.6259685795    0.0365830907    0.6774405648
H        2.2517257249    0.2013379868    2.3908684983
H        1.7424087324    1.4656997218    1.2401033605
H       -0.6254466993   -1.4972550039   -1.9568073897
H        1.0379406932   -1.6343077931   -1.3182301431
H       -0.3192553246   -2.4513346515   -0.4698035908
H        0.0138008393   -0.0215370375    1.9715762003
13   
Scan Cycle 3/20 ; Dihedral 1-3-6-2 = 105.55, Dihedral 12-2-6-3 = 59.92, Dihedral 7-1-3-6 = -71.24, Dihedral 13-1-6-3 = -31.58 ; Iteration 38 Energy -681.05179866
C        1.8749893029    0.4059108576    1.3784910219
C       -0.0199454933   -1.5839737661   -1.0512484079
N        0.6303798951   -0.3457372989    1.2386811705
O        0.1875969846    0.9880613706   -0.8680819613
O       -1.6611219791   -0.1377720579    0.3478977131
S       -0.3066566248   -0.1194983271   -0.1093196376
H        2.6196629541    0.0371706712    0.6734537829
H        2.2502544054    0.2205251626    2.3845011209
H        1.7444389635    1.4776836306    1.2260914140
H       -0.6242119587   -1.4961294860   -1.9541320833
H        1.0363162258   -1.6407732559   -1.3093177362
H       -0.3286448399   -2.4440734271   -0.4612827358
H        0.0118416383   -0.1140941567    2.0053662060
13   
Scan Cycle 4/20 ; Dihedral 1-3-6-2 = 105.55, Dihedral 12-2-6-3 = 59.92, Dihedral 7-1-3-6 = -71.24, Dihedral 13-1-6-3 = -27.37 ; Iteration 43 Energy -681.05325707
C        1.8741811669    0.4197206093    1.3754809402
C       -0.0249595188   -1.5828400027   -1.0472005577
N        0.6271266912   -0.3246136100    1.2329291876
O        0.2058496353    0.9860517714   -0.8786411670
O       -1.6611251712   -0.1201683097    0.3332455556
S       -0.3031841298   -0.1102945175   -0.1140748042
H        2.6205333456    0.0407483687    0.6778111091
H        2.2434439303    0.2391697013    2.3846540038
H        1.7510729300    1.4914062357    1.2173013245
H       -0.6291641458   -1.4982876763   -1.9504609992
H        1.0308999888   -1.6474717453   -1.3048921703
H       -0.3380679515   -2.4378041984   -0.4519481749
H        0.0182924728   -0.2083167317    2.0268954511
13   
Scan Cycle 5/20 ; Dihedral 1-3-6-2 = 105.55, Dihedral 12-2-6-3 = 59.92, Dihedral 7-1-3-6 = -71.24, Dihedral 13-1-6-3 = -23.16 ; Iteration 50 Energy -681.05378508
C        1.8749410657    0.4341449017    1.3758917838
C       -0.0323178587   -1.5826978962   -1.0437794603
N        0.6248072462   -0.3002343810    1.2244777907
O        0.2211990030    0.9837034758   -0.8905925206
O       -1.6613161704   -0.1043172199    0.3193339632
S       -0.3006998127   -0.1016856786   -0.1197190613
H        2.6269805224    0.0467039675    0.6889108036
H        2.2321624655    0.2580705374    2.3901583572
H        1.7598822836    1.5057044138    1.2121208603
H       -0.6387850719   -1.5026233147   -1.9459461396
H        1.0225171767   -1.6546938594   -1.3035942745
H       -0.3480420814   -2.4323721688   -0.4421162419
H        0.0335701795   -0.3024029148    2.0359536725
13   
Scan Cycle 6/20 ; Dihedral 1-3-6-2 = 105.55, Dihedral 12-2-6-3 = 59.92, Dihedral 7-1-3-6 = -71.24, Dihedral 13-1-6-3 = -18.95 ; Iteration 59 Energy -681.05370524
C        1.8763513110    0.4483386113    1.3787113400
C       -0.0411244778   -1.5831360395   -1.0404310143
N        0.6228688375   -0.2748564580    1.2152450760
O        0.2346046152    0.9816848452   -0.9023357521
O       -1.6617601750   -0.0895088266    0.3058084180
S       -0.2988804265   -0.0934763142   -0.1256399841
H        2.6367315513    0.0539613052    0.7045553063
H        2.2177168259    0.2777408700    2.3992768940
H        1.7687096282    1.5194225984    1.2086707469
H       -0.6510254949   -1.5079683826   -1.9407127623
H        1.0123310000   -1.6625439529   -1.3036371600
H       -0.3588556501   -2.4273605023   -0.4318810172
H        0.0572310352   -0.3949979415    2.0334692739
13   
Scan Cycle 7/20 ; Dihedral 1-3-6-2 = 105.55, Dihedral 12-2-6-3 = 59.92, Dihedral 7-1-3-6 = -71.24, Dihedral 13-1-6-3 = -14.74 ; Iteration 69 Energy -681.05327872
C        1.8775852170    0.4615979068    1.3829317624
C       -0.0504415665   -1.5837254534   -1.0365918716
N        0.6207200762   -0.2503433682    1.2068903432
O        0.2467538604    0.9806587783   -0.9126196387
O       -1.6625664731   -0.0750724437    0.2922462945
S       -0.2975015589   -0.0853921523   -0.1313429528
H        2.6474788799    0.0613689706    0.7225060038
H        2.2015315670    0.2983960422    2.4102559160
H        1.7759981089    1.5316602471    1.2052361749
H       -0.6638470105   -1.5133402733   -1.9348806343
H        1.0015394132   -1.6709723698   -1.3032589176
H       -0.3705947780   -2.4222881274   -0.4211866599
H        0.0882423723   -0.4852479605    2.0209132586
13   
Scan Cycle 8/20 ; Dihedral 1-3-6-2 = 105.55, Dihedral 12-2-6-3 = 59.92, Dihedral 7-1-3-6 = -71.24, Dihedral 13-1-6-3 = -10.53 ; Iteration 63 Energy -681.05267815
C        1.8780064130    0.4734619284    1.3877325217
C       -0.0595091026   -1.5841135325   -1.0318285513
N        0.6178331259   -0.2279629172    1.2006444345
O        0.2581315779    0.9810690594   -0.9206235395
O       -1.6638432776   -0.0604606701    0.2783113872
S       -0.2964375720   -0.0772009549   -0.1364529131
H        2.6573414302    0.0680030405    0.7408711070
H        2.1848889100    0.3199685501    2.4216684888
H        1.7808137310    1.5418657233    1.2006131920
H       -0.6756316032   -1.5180325263   -1.9285807056
H        0.9911188541   -1.6798195870   -1.3010747988
H       -0.3832245362   -2.4167678139   -0.4099688184
H        0.1254097613   -0.5727105228    1.9997870303
13   
Scan Cycle 9/20 ; Dihedral 1-3-6-2 = 105.55, Dihedral 12-2-6-3 = 59.92, Dihedral 7-1-3-6 = -71.24, Dihedral 13-1-6-3 = -6.32 ; Iteration 80 Energy -681.05199899
C        1.8772954687    0.4837582504    1.3926784963
C       -0.0678613575   -1.5841396058   -1.0258855905
N        0.6139036571   -0.2082341236    1.1971002757
O        0.2687984030    0.9830310813   -0.9262355265
O       -1.6656517178   -0.0453957031    0.2639357764
S       -0.2956940229   -0.0687802068   -0.1408145813
H        2.6652237382    0.0733255347    0.7585212391
H        2.1686579826    0.3420648329    2.4326964055
H        1.7829569956    1.5498927953    1.1944477213
H       -0.6854565350   -1.5218107268   -1.9218843910
H        0.9816637410   -1.6888774756   -1.2963118584
H       -0.3965488587   -2.4106274548   -0.3981323920
H        0.1676094897   -0.6569074553    1.9709827149
13   
Scan Cycle 10/20 ; Dihedral 1-3-6-2 = 105.55, Dihedral 12-2-6-3 = 59.92, Dihedral 7-1-3-6 = -71.24, Dihedral 13-1-6-3 = -2.11 ; Iteration 99 Energy -681.05128126
C        1.8751674341    0.4924705447    1.3974153943
C       -0.0751919069   -1.5837127860   -1.0186146026
N        0.6086332657   -0.1914665762    1.1967420852
O        0.2790261770    0.9863805597   -0.9294329525
O       -1.6680098416   -0.0295794566    0.2490686913
S       -0.2952575956   -0.0600964077   -0.1442664099
H        2.6702730620    0.0770324451    0.7745399278
H        2.1535691881    0.3642584611    2.4426925580
H        1.7822685252    1.5557760015    1.1866724959
H       -0.6926561630   -1.5245000444   -1.9149000182
H        0.9735803580   -1.6979636427   -1.2884252489
H       -0.4104462184   -2.4038212742   -0.3857208203
H        0.2139395865   -0.7374781095    1.9353265755
13   
Scan Cycle 11/20 ; Dihedral 1-3-6-2 = 105.55, Dihedral 12-2-6-3 = 59.92, Dihedral 7-1-3-6 = -71.24, Dihedral 13-1-6-3 = 2.11 ; Iteration 112 Energy -681.05052995
C        1.8715264675    0.4997050616    1.4017839981
C       -0.0814046941   -1.5828499239   -1.0099673139
N        0.6018852960   -0.1776606566    1.1997395181
O        0.2888924867    0.9907323941   -0.9305466902
O       -1.6708857720   -0.0128577891    0.2338886574
S       -0.2951738626   -0.0511956284   -0.1467388202
H        2.6720755416    0.0790321892    0.7884248467
H        2.1401211871    0.3859571580    2.4513204328
H        1.7789044014    1.5597423804    1.1776856169
H       -0.6970004660   -1.5261286464   -1.9076770211
H        0.9670022764   -1.7068956678   -1.2772373413
H       -0.4247653925   -2.3964475219   -0.3728010869
H        0.2637170690   -0.8138337848    1.8932223407
13   
Scan Cycle 12/20 ; Dihedral 1-3-6-2 = 105.55, Dihedral 12-2-6-3 = 59.92, Dihedral 7-1-3-6 = -71.24, Dihedral 13-1-6-3 = 6.32 ; Iteration 113 Energy -681.04972558
C        1.8663348206    0.5056217850    1.4057603398
C       -0.0864979644   -1.5816240034   -0.9999711760
N        0.5935773505   -0.1666979084    1.2061283471
O        0.2984909439    0.9955487203   -0.9300696363
O       -1.6742128836    0.0048663755    0.2186303547
S       -0.2954896354   -0.0421755990   -0.1482194988
H        2.6704201715    0.0793386627    0.7999652074
H        2.1285924843    0.4065521522    2.4584632287
H        1.7731172073    1.5621148521    1.1681070140
H       -0.6984337123   -1.5267905988   -1.9002707904
H        0.9619395410   -1.7155149420   -1.2627575225
H       -0.4393665385   -2.3886909856   -0.3595090443
H        0.3164215359   -0.8852489690    1.8448397568
13   
Scan Cycle 13/20 ; Dihedral 1-3-6-2 = 105.55, Dihedral 12-2-6-3 = 59.92, Dihedral 7-1-3-6 = -71.24, Dihedral 13-1-6-3 = 10.53 ; Iteration 101 Energy -681.04882838
C        1.8596128404    0.5104054595    1.4094155224
C       -0.0905382628   -1.5801568983   -0.9887209702
N        0.5836988149   -0.1584106904    1.2158331621
O        0.3078694509    1.0001824792   -0.9285952525
O       -1.6779081120    0.0235721338    0.2036269315
S       -0.2962654533   -0.0331977985   -0.1487267752
H        2.6652486328    0.0780476086    0.8091589112
H        2.1190829342    0.4254749865    2.4641647506
H        1.7652476974    1.5632762964    1.1586566619
H       -0.6970533164   -1.5266284242   -1.8927297732
H        0.9583083694   -1.7236694396   -1.2451786055
H       -0.4540841407   -2.3808211972   -0.3460378899
H        0.3716728355   -0.9507750262    1.7902293594
13   
Scan Cycle 14/20 ; Dihedral 1-3-6-2 = 105.55, Dihedral 12-2-6-3 = 59.92, Dihedral 7-1-3-6 = -71.24, Dihedral 13-1-6-3 = 14.74 ; Iteration 83 Energy -681.04777481
C        1.8514834295    0.5142134964    1.4129222173
C       -0.0936963357   -1.5786057836   -0.9763824400
N        0.5723408926   -0.1525767261    1.2286299348
O        0.3170240283    1.0039253438   -0.9268044179
O       -1.6818817318    0.0431482592    0.1893046089
S       -0.2975745835   -0.0244621392   -0.1483178461
H        2.6566869592    0.0752546650    0.8162350738
H        2.1115134362    0.4421874422    2.4686396429
H        1.7558436098    1.5636141150    1.1500973113
H       -0.6931719327   -1.5258115256   -1.8850858932
H        0.9558893111   -1.7312369375   -1.2249060239
H       -0.4687713832   -2.3731573418   -0.3326085526
H        0.4292059055   -1.0091934394    1.7293719707
13   
Scan Cycle 15/20 ; Dihedral 1-3-6-2 = 105.55, Dihedral 12-2-6-3 = 59.92, Dihedral 7-1-3-6 = -71.24, Dihedral 13-1-6-3 = 18.95 ; Iteration 65 Energy -681.04646767
C        1.8421834712    0.5172097689    1.4166010970
C       -0.0962126899   -1.5772041444   -0.9632226483
N        0.5597309394   -0.1488617297    1.2440332784
O        0.3258030467    1.0060455630   -0.9254842560
O       -1.6860672439    0.0632625197    0.1761283959
S       -0.2995139011   -0.0162385685   -0.1471373577
H        2.6451178151    0.0711113385    0.8217676010
H        2.1055286040    0.4562221994    2.4723425489
H        1.7457200771    1.5635482584    1.1432549513
H       -0.6873411277   -1.5246251162   -1.8773594404
H        0.9543619690   -1.7381444560   -1.2026355634
H       -0.4832116158   -2.3660985961   -0.3194455450
H        0.4887917732   -1.0589276121    1.6622521854
13   
Scan Cycle 16/20 ; Dihedral 1-3-6-2 = 105.55, Dihedral 12-2-6-3 = 59.92, Dihedral 7-1-3-6 = -71.24, Dihedral 13-1-6-3 = 23.16 ; Iteration 69 Energy -681.04476086
C        1.8323617942    0.5195721654    1.4211899458
C       -0.0985547830   -1.5763375741   -0.9496969118
N        0.5465065963   -0.1464570078    1.2606987718
O        0.3334011631    1.0059027616   -0.9259379471
O       -1.6904967953    0.0831023708    0.1646968499
S       -0.3023210873   -0.0088528477   -0.1456447366
H        2.6317139429    0.0658636209    0.8272169272
H        2.1002079854    0.4668990232    2.4763721137
H        1.7366200834    1.5636216746    1.1394575361
H       -0.6808368900   -1.5237482167   -1.8694648683
H        0.9531012687   -1.7443648942   -1.1797632113
H       -0.4969832041   -2.3601525272   -0.3066107482
H        0.5501705429   -1.0977491063    1.5885812303
13   
Scan Cycle 17/20 ; Dihedral 1-3-6-2 = 105.55, Dihedral 12-2-6-3 = 59.92, Dihedral 7-1-3-6 = -71.24, Dihedral 13-1-6-3 = 27.37 ; Iteration 58 Energy -681.04244662
C        1.8225696927    0.5214448409    1.4271650654
C       -0.1011221002   -1.5763369238   -0.9363365447
N        0.5332206495   -0.1448014763    1.2774702915
O        0.3395012721    1.0030319401   -0.9287103778
O       -1.6951985292    0.1018479660    0.1552503880
S       -0.3060525956   -0.0026784255   -0.1441131753
H        2.6175666571    0.0598192998    0.8337138646
H        2.0948067903    0.4739705298    2.4815543705
H        1.7298528464    1.5641981409    1.1394377080
H       -0.6748052453   -1.5235751011   -1.8614584294
H        0.9515712741   -1.7500466564   -1.1576758307
H       -0.5098471595   -2.3557646155   -0.2943303316
H        0.6128266092   -1.1238100705    1.5091277588
13   
Scan Cycle 18/20 ; Dihedral 1-3-6-2 = 105.55, Dihedral 12-2-6-3 = 59.92, Dihedral 7-1-3-6 = -71.24, Dihedral 13-1-6-3 = 31.58 ; Iteration 50 Energy -681.03926281
C        1.8139949968    0.5230541889    1.4355118704
C       -0.1045843245   -1.5777273328   -0.9238447728
N        0.5210410311   -0.1425032941    1.2918017822
O        0.3427326979    0.9972860380   -0.9351844809
O       -1.7003537028    0.1180754114    0.1480550582
S       -0.3109614161    0.0019340905   -0.1433542688
H        2.6050775623    0.0535598854    0.8435815391
H        2.0878473419    0.4768641998    2.4895574588
H        1.7279230009    1.5658307130    1.1447110028
H       -0.6713657206   -1.5251791915   -1.8532047932
H        0.9488791654   -1.7554242118   -1.1385816986
H       -0.5212465491   -2.3534219143   -0.2824010784
H        0.6759058137   -1.1350491162    1.4244469765
13   
Scan Cycle 19/20 ; Dihedral 1-3-6-2 = 105.55, Dihedral 12-2-6-3 = 59.92, Dihedral 7-1-3-6 = -71.24, Dihedral 13-1-6-3 = 35.79 ; Iteration 45 Energy -681.03494855
C        1.8078994631    0.5246271629    1.4470190452
C       -0.1095346239   -1.5809319285   -0.9128899807
N        0.5112349519   -0.1381031299    1.3009268636
O        0.3416622746    0.9888748791   -0.9466432435
O       -1.7061499105    0.1304781353    0.1431193591
S       -0.3172346521    0.0047769211   -0.1442630200
H        2.5969165858    0.0478511736    0.8589763246
H        2.0779124828    0.4751676547    2.5018404640
H        1.7330333434    1.5689433988    1.1566474279
H       -0.6725544601   -1.5296439459   -1.8445904603
H        0.9442362633   -1.7607574256   -1.1245456637
H       -0.5306305930   -2.3533970412   -0.2704643051
H        0.7380985541   -1.1305863958    1.3359616501
13   
Scan Cycle 20/20 ; Dihedral 1-3-6-2 = 105.55, Dihedral 12-2-6-3 = 59.92, Dihedral 7-1-3-6 = -71.24, Dihedral 13-1-6-3 = 40.00 ; Iteration 41 Energy -681.02934796
C        1.8053546922    0.5263254899    1.4620998556
C       -0.1163104421   -1.5861087079   -0.9039038805
N        0.5049580061   -0.1303366367    1.3024147786
O        0.3348938573    0.9783125652   -0.9643614275
O       -1.7126904955    0.1383285957    0.1403235061
S       -0.3249823106    0.0059488584   -0.1477340273
H        2.5953604470    0.0433964914    0.8813970916
H        2.0639160804    0.4685980854    2.5192134647
H        1.7465923718    1.5737123852    1.1763533977
H       -0.6797733883   -1.5379119315   -1.8354938020
H        0.9371714495   -1.7661396086   -1.1169095332
H       -0.5374655356   -2.3555755308   -0.2579875791
H        0.7978647256   -1.1112505905    1.2456824878
