8    
Iteration 0 Energy -78.79071094
C       -4.1336763611    0.7043602014   -0.0086341240
H       -3.3704212106    0.0617614261   -0.4310769614
H       -4.4501471228    1.4098953338   -0.7666083124
H       -4.9813979162    0.0728498346    0.2316176955
C       -3.6137932375    1.4313600625    1.2606098915
H       -3.3156734507    2.4480861330    1.0340212107
H       -4.3910223896    1.4900862338    2.0140181399
H       -2.7690462432    0.9120380074    1.6955416699
8    
Iteration 1 Energy -78.79018632
C       -4.1304177281    0.7095238004   -0.0129137767
H       -3.3819360197    0.0395715061   -0.4189783780
H       -4.4393736943    1.4121548123   -0.7766641348
H       -4.9852620031    0.0898903946    0.2329592547
C       -3.6067791980    1.4298195072    1.2586079094
H       -3.3398501936    2.4576973200    1.0437462899
H       -4.3853933216    1.4736693358    2.0115988046
H       -2.7561657734    0.9181190230    1.6911332408
8    
Iteration 2 Energy -78.78993824
C       -4.1295368362    0.7093925595   -0.0137558234
H       -3.3900489624    0.0231378390   -0.4090907965
H       -4.4213896524    1.4116267378   -0.7834380597
H       -4.9963169576    0.1037941662    0.2283510328
C       -3.6058587062    1.4305867133    1.2583504694
H       -3.3583734755    2.4647439035    1.0501494936
H       -4.3787926246    1.4581951893    2.0189317259
H       -2.7448607169    0.9289733718    1.6799998296
8    
Iteration 3 Energy -78.78405228
C       -4.1502991913    0.7265693769   -0.0054628515
H       -3.3781712379    0.0556767486   -0.3481854172
H       -4.4133952128    1.4037424630   -0.8459466876
H       -5.0212095311    0.1804348941    0.2478077239
C       -3.6115452158    1.4041099857    1.2661573778
H       -3.3888552810    2.4256596928    1.0005230326
H       -4.3669988449    1.3769633039    2.0074119007
H       -2.6949099170    0.9572972328    1.7069949149
8    
Iteration 4 Energy -78.78987713
C       -4.1319517245    0.7066005196   -0.0117237678
H       -3.3981683398    0.0064362819   -0.3919464236
H       -4.3910750064    1.4077945739   -0.7961849208
H       -5.0185149118    0.1282056231    0.2185883767
C       -3.6096433660    1.4311969913    1.2601098290
H       -3.3829542797    2.4699236865    1.0530011633
H       -4.3667764023    1.4301954286    2.0349181035
H       -2.7261071875    0.9501067944    1.6627433832
8    
Iteration 5 Energy -78.78990103
C       -4.1332492768    0.7042488582   -0.0100967631
H       -3.4005464741    0.0009277911   -0.3867239441
H       -4.3769963628    1.4058101440   -0.7981838267
H       -5.0282144850    0.1355075042    0.2134086958
C       -3.6125143282    1.4320803814    1.2610303489
H       -3.3906073674    2.4718983169    1.0539135032
H       -4.3623628855    1.4210295594    2.0433279599
H       -2.7206956398    0.9589622103    1.6528219887
8    
Iteration 6 Energy -78.78990135
C       -4.1350845365    0.7021235677   -0.0085440378
H       -3.4023411534   -0.0028397641   -0.3821615357
H       -4.3650057945    1.4034997654   -0.8009934744
H       -5.0370334004    0.1421010444    0.2084177041
C       -3.6153904395    1.4325426264    1.2623690839
H       -3.3966976686    2.4728828073    1.0541827857
H       -4.3581332678    1.4128198907    2.0511362236
H       -2.7154670727    0.9673390645    1.6451126371
8    
Iteration 7 Energy -78.78989098
C       -4.1350350776    0.7020663312   -0.0084008290
H       -3.4028269765   -0.0039720335   -0.3810995696
H       -4.3631636389    1.4035237832   -0.8011322775
H       -5.0379815509    0.1434619558    0.2082134304
C       -3.6155178367    1.4325748882    1.2622715523
H       -3.3982593161    2.4732955872    1.0543708154
H       -4.3576423157    1.4113001048    2.0516203440
H       -2.7147256960    0.9682273259    1.6436681591
8    
Iteration 8 Energy -78.78988488
C       -4.1350359995    0.7020499218   -0.0083720181
H       -3.4031634393   -0.0046137110   -0.3805520391
H       -4.3622311971    1.4034546030   -0.8013776354
H       -5.0385117921    0.1442292664    0.2080140453
C       -3.6155492909    1.4325811367    1.2622614556
H       -3.3991197988    2.4735158966    1.0545537117
H       -4.3572952027    1.4104699713    2.0519318259
H       -2.7142456081    0.9687954179    1.6430479537
8    
Iteration 9 Energy -78.78988113
C       -4.1351438478    0.7022113925   -0.0085991008
H       -3.4034948525   -0.0047538376   -0.3805342599
H       -4.3625765855    1.4031568378   -0.8022126284
H       -5.0385120558    0.1445460085    0.2077964849
C       -3.6153328427    1.4324722446    1.2624049762
H       -3.3993197293    2.4734816214    1.0548407201
H       -4.3569761466    1.4102809159    2.0519397155
H       -2.7138271886    0.9691352287    1.6438208813
8    
Iteration 10 Energy -78.78987926
C       -4.1350729913    0.7020863948   -0.0084515866
H       -3.4035409572   -0.0051463865   -0.3801849912
H       -4.3616985047    1.4033061250   -0.8018727096
H       -5.0389011669    0.1448260137    0.2077462705
C       -3.6154862484    1.4325639534    1.2623130887
H       -3.3998045944    2.4736845906    1.0548227772
H       -4.3569320275    1.4098737912    2.0522052056
H       -2.7137384516    0.9693213916    1.6428950294
8    
Iteration 11 Energy -78.78987803
C       -4.1350919946    0.7020616898   -0.0084405462
H       -3.4036273516   -0.0052993023   -0.3800587900
H       -4.3614425639    1.4032677203   -0.8019641593
H       -5.0390766242    0.1450123641    0.2076445597
C       -3.6155138749    1.4325773801    1.2623293659
H       -3.4000088069    2.4737398876    1.0548724128
H       -4.3568195386    1.4096708898    2.0523459924
H       -2.7135962808    0.9695047750    1.6427406624
8    
Iteration 12 Energy -78.78987730
C       -4.1351001107    0.7020436865   -0.0084306329
H       -3.4036718259   -0.0053922070   -0.3799751382
H       -4.3612743993    1.4032407651   -0.8020139128
H       -5.0391846849    0.1451312577    0.2075879615
C       -3.6155329465    1.4325842588    1.2623342208
H       -3.4001349140    2.4737705748    1.0548903108
H       -4.3567528529    1.4095368439    2.0524266735
H       -2.7135122702    0.9696187523    1.6426344033
8    
Iteration 13 Energy -78.78987687
C       -4.1351041349    0.7020325873   -0.0084271863
H       -3.4036992897   -0.0054478930   -0.3799318569
H       -4.3611853610    1.4032245667   -0.8020457579
H       -5.0392427629    0.1451922316    0.2075522388
C       -3.6155408401    1.4325880431    1.2623391185
H       -3.4002052419    2.4737892029    1.0549068157
H       -4.3567124181    1.4094659878    2.0524752182
H       -2.7134617874    0.9696815873    1.6425816213
8    
Iteration 14 Energy -78.78987662
C       -4.1351083824    0.7020291603   -0.0084253377
H       -3.4037176953   -0.0054776647   -0.3799060914
H       -4.3611351237    1.4032179508   -0.8020645023
H       -5.0392785046    0.1452305903    0.2075314496
C       -3.6155472705    1.4325926053    1.2623419976
H       -3.4002477705    2.4738022946    1.0549174117
H       -4.3566915868    1.4094273222    2.0525027997
H       -2.7134347537    0.9697198507    1.6425510602
8    
Iteration 15 Energy -78.78987647
C       -4.1351115902    0.7020276666   -0.0084248240
H       -3.4037289867   -0.0054946859   -0.3798912399
H       -4.3611074360    1.4032140624   -0.8020760334
H       -5.0392996409    0.1452530966    0.2075198918
C       -3.6155521686    1.4325965900    1.2623425701
H       -3.4002744581    2.4738113083    1.0549219617
H       -4.3566810204    1.4094063687    2.0525174034
H       -2.7134204956    0.9697438607    1.6425328561
