8    
Iteration 0 Energy -78.78987647
C       -4.1351115902    0.7020276666   -0.0084248240
H       -3.4037289867   -0.0054946859   -0.3798912399
H       -4.3611074360    1.4032140624   -0.8020760334
H       -5.0392996409    0.1452530966    0.2075198918
C       -3.6155521686    1.4325965900    1.2623425701
H       -3.4002744581    2.4738113083    1.0549219617
H       -4.3566810204    1.4094063687    2.0525174034
H       -2.7134204956    0.9697438607    1.6425328561
8    
Iteration 1 Energy -78.78952624
C       -4.1313994519    0.7069230194   -0.0127424375
H       -3.4171700967   -0.0264063021   -0.3671455983
H       -4.3498947281    1.4039428728   -0.8121398301
H       -5.0418934241    0.1626762962    0.2085666739
C       -3.6084815616    1.4315017980    1.2600643759
H       -3.4250232776    2.4812611991    1.0655262894
H       -4.3502061165    1.3933507582    2.0490958979
H       -2.7011071399    0.9773086258    1.6382087480
8    
Iteration 2 Energy -78.78939378
C       -4.1306040585    0.7069636695   -0.0134156544
H       -3.4264785256   -0.0414670796   -0.3565070977
H       -4.3316325282    1.4020611357   -0.8180509219
H       -5.0516471754    0.1775266788    0.2033111184
C       -3.6076483824    1.4320373479    1.2597404052
H       -3.4439156834    2.4863843948    1.0721318080
H       -4.3421972169    1.3778854949    2.0554162364
H       -2.6910522260    0.9891749160    1.6268030556
8    
Iteration 3 Energy -78.78955718
C       -4.1370313926    0.7023405875   -0.0078617313
H       -3.4330709664   -0.0524854911   -0.3356670959
H       -4.2922821120    1.3933557914   -0.8287451005
H       -5.0796173147    0.2075970272    0.1882657156
C       -3.6165050348    1.4312800892    1.2635403353
H       -3.4683097639    2.4864837975    1.0702497093
H       -4.3251252998    1.3439844141    2.0771395198
H       -2.6732339122    1.0180318471    1.6025388151
8    
Iteration 4 Energy -78.78956756
C       -4.1366102815    0.6992414003   -0.0072456969
H       -3.4388534980   -0.0623673079   -0.3337487092
H       -4.2786826273    1.3911878848   -0.8275980650
H       -5.0861629785    0.2124802977    0.1814357725
C       -3.6183261198    1.4338846633    1.2637787801
H       -3.4764656202    2.4914525411    1.0768501215
H       -4.3194460308    1.3387944793    2.0844955958
H       -2.6706360734    1.0259122564    1.5914899445
8    
Iteration 5 Energy -78.78956712
C       -4.1369705420    0.6997185627   -0.0070328842
H       -3.4403572651   -0.0643271355   -0.3299132614
H       -4.2746782937    1.3905304418   -0.8297959251
H       -5.0885295720    0.2174459337    0.1808380013
C       -3.6183959269    1.4332554651    1.2638292158
H       -3.4810225745    2.4912755278    1.0767206208
H       -4.3174143197    1.3337108155    2.0852980607
H       -2.6678099596    1.0289772484    1.5895115012
8    
Iteration 6 Energy -78.78956614
C       -4.1370863199    0.6995927141   -0.0069226515
H       -3.4416336397   -0.0661691660   -0.3282162706
H       -4.2716494273    1.3899307736   -0.8306192618
H       -5.0901956110    0.2199565281    0.1797801858
C       -3.6185840552    1.4332734152    1.2639041138
H       -3.4837014868    2.4917221933    1.0774423214
H       -4.3159282856    1.3311369478    2.0864643311
H       -2.6664059251    1.0311385143    1.5876237819
8    
Iteration 7 Energy -78.78956586
C       -4.1371861184    0.6994843468   -0.0067679993
H       -3.4423586712   -0.0672700676   -0.3270376961
H       -4.2695797602    1.3895769947   -0.8310641619
H       -5.0913405464    0.2216386777    0.1791112955
C       -3.6187936420    1.4332688660    1.2639409381
H       -3.4854243243    2.4919569842    1.0777630605
H       -4.3149730048    1.3293831106    2.0872514181
H       -2.6655149157    1.0325324269    1.5862605001
8    
Iteration 8 Energy -78.78956574
C       -4.1372389533    0.6994265757   -0.0067409675
H       -3.4428459497   -0.0679310459   -0.3264905813
H       -4.2685305668    1.3893110631   -0.8313949761
H       -5.0919422572    0.2225105496    0.1786648060
C       -3.6188607684    1.4332853428    1.2639896201
H       -3.4863473164    2.4921232277    1.0780807618
H       -4.3144009854    1.3284996538    2.0877171145
H       -2.6650176287    1.0333454493    1.5856479039
8    
Iteration 9 Energy -78.78956569
C       -4.1372360349    0.6994169590   -0.0066576202
H       -3.4430192568   -0.0682800681   -0.3260088302
H       -4.2678109198    1.3893213569   -0.8314214809
H       -5.0922667281    0.2230898193    0.1786016402
C       -3.6189361160    1.4332683934    1.2639454338
H       -3.4869685216    2.4921917368    1.0780806727
H       -4.3141880179    1.3278770142    2.0878439371
H       -2.6647539572    1.0336839840    1.5850695901
8    
Iteration 10 Energy -78.78956568
C       -4.1372933264    0.6993623576   -0.0066132276
H       -3.4431964050   -0.0685339251   -0.3257373305
H       -4.2672561920    1.3891888698   -0.8315519778
H       -5.0926004773    0.2235072833    0.1783665786
C       -3.6190193963    1.4332734050    1.2639855300
H       -3.4873727271    2.4922417619    1.0781640831
H       -4.3139144956    1.3274359306    2.0881126289
H       -2.6645259677    1.0340935602    1.5847213393
8    
Iteration 11 Energy -78.78956568
C       -4.1373224816    0.6993313019   -0.0066179989
H       -3.4433276820   -0.0686909213   -0.3256471754
H       -4.2670006210    1.3890778286   -0.8316684077
H       -5.0927708019    0.2237043095    0.1781879651
C       -3.6190450714    1.4332885895    1.2640202632
H       -3.4875706095    2.4922875301    1.0782744575
H       -4.3137415237    1.3272406602    2.0882812640
H       -2.6644028129    1.0343422421    1.5846043048
8    
Iteration 12 Energy -78.78956568
C       -4.1373253602    0.6993311284   -0.0066369881
H       -3.4434005275   -0.0687665458   -0.3256266625
H       -4.2669407652    1.3890298119   -0.8317343411
H       -5.0928138836    0.2237681050    0.1781213052
C       -3.6190334362    1.4332965041    1.2640333977
H       -3.4876532879    2.4923151792    1.0783489098
H       -4.3136753651    1.3271864307    2.0883316308
H       -2.6643534156    1.0344336453    1.5846026523
8    
Iteration 13 Energy -78.78956568
C       -4.1373095827    0.6993483255   -0.0066599357
H       -3.4434314490   -0.0687962416   -0.3256353009
H       -4.2669738636    1.3890304035   -0.8317589342
H       -5.0927850825    0.2237650729    0.1781273335
C       -3.6190005754    1.4332961825    1.2640286215
H       -3.4876686311    2.4923279734    1.0783885887
H       -4.3136737530    1.3272010014    2.0883052853
H       -2.6643442589    1.0344237031    1.5846457104
8    
Iteration 14 Energy -78.78956568
C       -4.1373010881    0.6993551860   -0.0066623148
H       -3.4434411165   -0.0688151613   -0.3256177749
H       -4.2669714789    1.3890379763   -0.8317585223
H       -5.0927752241    0.2237748360    0.1781462016
C       -3.6189905423    1.4332935169    1.2640228750
H       -3.4876934307    2.4923321483    1.0783936049
H       -4.3136776394    1.3271917338    2.0882887570
H       -2.6643380073    1.0344166823    1.5846419151
8    
Iteration 15 Energy -78.78956568
C       -4.1372987025    0.6993574886   -0.0066573094
H       -3.4434447026   -0.0688274283   -0.3255942584
H       -4.2669537899    1.3890456715   -0.8317516335
H       -5.0927791680    0.2237930406    0.1781631129
C       -3.6189895650    1.4332921761    1.2640162739
H       -3.4877156286    2.4923345934    1.0783855429
H       -4.3136784337    1.3271723606    2.0882790080
H       -2.6643302196    1.0344178164    1.5846182607
