8    
Iteration 15 Energy -78.78956568
C       -4.1372987025    0.6993574886   -0.0066573094
H       -3.4434447026   -0.0688274283   -0.3255942584
H       -4.2669537899    1.3890456715   -0.8317516335
H       -5.0927791680    0.2237930406    0.1781631129
C       -3.6189895650    1.4332921761    1.2640162739
H       -3.4877156286    2.4923345934    1.0783855429
H       -4.3136784337    1.3271723606    2.0882790080
H       -2.6643302196    1.0344178164    1.5846182607
