8    
Scan Cycle 1/3 ; Dihedral 2-1-5-6 = 100.00 ; Iteration 18 Energy -78.79071094
C       -4.1336763611    0.7043602014   -0.0086341240
H       -3.3704212106    0.0617614261   -0.4310769614
H       -4.4501471228    1.4098953338   -0.7666083124
H       -4.9813979162    0.0728498346    0.2316176955
C       -3.6137932375    1.4313600625    1.2606098915
H       -3.3156734507    2.4480861330    1.0340212107
H       -4.3910223896    1.4900862338    2.0140181399
H       -2.7690462432    0.9120380074    1.6955416699
8    
Scan Cycle 2/3 ; Dihedral 2-1-5-6 = 110.00 ; Iteration 15 Energy -78.78987647
C       -4.1351115902    0.7020276666   -0.0084248240
H       -3.4037289867   -0.0054946859   -0.3798912399
H       -4.3611074360    1.4032140624   -0.8020760334
H       -5.0392996409    0.1452530966    0.2075198918
C       -3.6155521686    1.4325965900    1.2623425701
H       -3.4002744581    2.4738113083    1.0549219617
H       -4.3566810204    1.4094063687    2.0525174034
H       -2.7134204956    0.9697438607    1.6425328561
8    
Scan Cycle 3/3 ; Dihedral 2-1-5-6 = 120.00 ; Iteration 15 Energy -78.78956568
C       -4.1372987025    0.6993574886   -0.0066573094
H       -3.4434447026   -0.0688274283   -0.3255942584
H       -4.2669537899    1.3890456715   -0.8317516335
H       -5.0927791680    0.2237930406    0.1781631129
C       -3.6189895650    1.4332921761    1.2640162739
H       -3.4877156286    2.4923345934    1.0783855429
H       -4.3136784337    1.3271723606    2.0882790080
H       -2.6643302196    1.0344178164    1.5846182607
