24   
Iteration 0 Energy -0.00388152
C        1.0000000000    1.0000000000    0.0000000000
C       -0.5150000000    1.0000000000    0.0000000000
C       -1.2590000000    1.0000000000    1.1240000000
C       -0.6720000000    1.0800000000    2.5180000000
C        0.7800000000    1.5020000000    2.4250000000
H        0.8290000000    2.5700000000    2.1600000000
C        1.4960000000    0.6460000000    1.3880000000
H        1.3090000000   -0.4230000000    1.5730000000
C        2.9370000000    0.8810000000    1.7380000000
O        3.8810000000    0.7520000000    0.9760000000
N        2.9490000000    1.1300000000    3.0990000000
C        1.6800000000    1.3310000000    3.6160000000
O        1.3450000000    1.4290000000    4.7840000000
S        4.3590000000    1.1820000000    4.0240000000
C        4.5140000000   -0.5220000000    4.6690000000
Cl       3.2740000000   -1.6680000000    4.0780000000
Cl       6.1240000000   -1.1640000000    4.1980000000
Cl       4.4360000000   -0.4750000000    6.4590000000
H        1.3660000000    1.9820000000   -0.3200000000
H        1.3680000000    0.2640000000   -0.7240000000
H       -1.0060000000    0.9990000000   -0.9710000000
H       -2.3440000000    0.9410000000    1.0470000000
H       -0.7780000000    0.1090000000    3.0150000000
H       -1.2330000000    1.8110000000    3.1120000000
24   
Iteration 1 Energy -0.01111006
C        0.9882129284    1.0382799661   -0.0326403496
C       -0.5436286629    1.0195478085   -0.0193340806
C       -1.2924637729    1.0016247255    1.1094578747
C       -0.7071873627    1.0579443777    2.5242771115
C        0.7536020503    1.5059365849    2.4263582868
H        0.7920336174    2.5613921241    2.1476934463
C        1.4860330704    0.6556748109    1.3636443653
H        1.2830748968   -0.4032877489    1.5405452426
C        2.9510519488    0.8135055684    1.7462646972
O        3.9531158396    0.6539005801    1.0618955901
N        2.9248881579    1.1372232396    3.0847483447
C        1.6863037912    1.4062057010    3.6228538461
O        1.3941523765    1.5506829655    4.8021031832
S        4.3418254918    1.1134747274    4.0466885128
C        4.5735028258   -0.5745941688    4.6999454610
Cl       3.3883746891   -1.7501921493    4.0613253799
Cl       6.2183709226   -1.0980951836    4.2531049442
Cl       4.4321287391   -0.4924769316    6.4749554700
H        1.3583314566    2.0157572361   -0.3484572833
H        1.3541129860    0.3070315970   -0.7560804085
H       -1.0513586359    0.9576246741   -0.9734955462
H       -2.3707058141    1.0051052729    1.0118443265
H       -0.8082716998    0.0909792953    3.0215967847
H       -1.2654998400    1.7837549272    3.1187048007
24   
Iteration 2 Energy -0.01124765
C        0.9829602013    1.0851565899   -0.0515512715
C       -0.5564134975    1.0250877649   -0.0198879657
C       -1.2901432205    0.9646129317    1.1233252235
C       -0.6922988265    1.0049198856    2.5430827385
C        0.7550662195    1.5065551866    2.4211388867
H        0.7567975303    2.5557643237    2.1347159670
C        1.4889047812    0.6759218334    1.3399251625
H        1.2873694139   -0.3807306512    1.5051412484
C        2.9536839281    0.8095865083    1.7571833655
O        3.8762825874    0.5757169739    0.9823879412
N        2.9849607614    1.1804468437    3.0816768793
C        1.7390407816    1.4619725399    3.5924199519
O        1.4602880606    1.6413962629    4.7740148490
S        4.4093829674    1.0852151225    4.0646667730
C        4.5642219599   -0.5951749214    4.7388623304
Cl       3.3430120542   -1.6858907880    4.0291841122
Cl       6.2003100508   -1.1674219890    4.3527349985
Cl       4.3382932410   -0.4803976876    6.4976780957
H        1.3364320563    2.0737771531   -0.3434673021
H        1.3603174960    0.3794454140   -0.7909932003
H       -1.0816725156    0.9405432203   -0.9599039249
H       -2.3657373352    0.9693859637    1.0299055409
H       -0.7500432771    0.0301625441    3.0271409781
H       -1.2610154185    1.7009489747    3.1586186222
24   
Iteration 3 Energy -0.01331561
C        0.9808090769    1.0862713141   -0.0414840812
C       -0.5528644174    1.0173707156    0.0002609821
C       -1.2792986727    0.9466032472    1.1449913976
C       -0.6657696434    0.9913013080    2.5526159586
C        0.7715958759    1.5064729184    2.4204949839
H        0.7584745914    2.5576592088    2.1326021449
C        1.5010145016    0.6752917304    1.3395044445
H        1.3041157233   -0.3849287075    1.5011675107
C        2.9680616986    0.8210295221    1.7253962225
O        3.9340038442    0.5953695122    1.0029899736
N        2.9857440908    1.1938285816    3.0503762966
C        1.7485135384    1.4639917991    3.5888258320
O        1.4755703921    1.6496251954    4.7707235978
S        4.4168740547    1.0955955152    4.0199037754
C        4.5125627858   -0.5806047905    4.7165819434
Cl       3.2761965449   -1.6514353040    4.0027918282
Cl       6.1382228310   -1.2141109387    4.3704635071
Cl       4.2637076823   -0.4486639544    6.4732966789
H        1.3237605983    2.0822654255   -0.3241568111
H        1.3588934102    0.3916429447   -0.7925814008
H       -1.0813669325    0.9522985420   -0.9412669711
H       -2.3575582343    0.9234891536    1.0638142733
H       -0.7023583431    0.0116120439    3.0308361065
H       -1.2389049973    1.6750250172    3.1798518068
24   
Iteration 4 Energy -0.01377318
C        0.9725561688    1.0905731026   -0.0398166811
C       -0.5597475870    1.0179740879    0.0052599124
C       -1.2767895927    0.9483162406    1.1554163993
C       -0.6565569375    0.9914977077    2.5584341253
C        0.7754795688    1.5132537123    2.4169421390
H        0.7514927384    2.5637416477    2.1229889319
C        1.4967243625    0.6752611223    1.3367014557
H        1.2939808361   -0.3855133137    1.4941151394
C        2.9641637720    0.8173007893    1.7122333081
O        3.9287801583    0.5669092562    0.9958510677
N        2.9881428715    1.2057148620    3.0326023970
C        1.7551603168    1.4782779742    3.5805007919
O        1.4900229567    1.6824469776    4.7614261452
S        4.4206274320    1.0856844195    3.9993809414
C        4.5097661066   -0.5876641846    4.7140790415
Cl       3.3446351187   -1.7111635415    3.9602740578
Cl       6.1654470835   -1.1919447306    4.4636340726
Cl       4.1729961793   -0.4503728687    6.4567895341
H        1.3097895650    2.0911508761   -0.3150084813
H        1.3533479187    0.4034353181   -0.7971866153
H       -1.0915596360    0.9581581800   -0.9355234909
H       -2.3563948217    0.9190833402    1.0837966418
H       -0.6827058406    0.0075290574    3.0296629255
H       -1.2293587383    1.6673499675    3.1954462409
24   
Iteration 5 Energy -0.01494681
C        0.9543292633    1.0972440492   -0.0298017490
C       -0.5744971348    1.0018733584    0.0475296411
C       -1.2721353023    0.9331510417    1.2096930194
C       -0.6136961357    0.9800852759    2.5945872134
C        0.8002311939    1.5317539114    2.4115954677
H        0.7346855954    2.5759545422    2.0962982999
C        1.5025874153    0.6767732279    1.3327275902
H        1.2908299580   -0.3845136404    1.4842983461
C        2.9743668917    0.8135603882    1.6779139069
O        3.9277927970    0.4883536094    0.9752234929
N        3.0254451528    1.2578625745    2.9796803909
C        1.8039955218    1.5372642829    3.5503515180
O        1.5677078200    1.7957322968    4.7278736873
S        4.4571552647    1.0704719696    3.9426679711
C        4.4594558316   -0.6003050062    4.6760827738
Cl       3.5412994358   -1.7898697608    3.7108841520
Cl       6.1547661021   -1.1371894711    4.7969102079
Cl       3.7559974918   -0.4841608524    6.3091362223
H        1.2644305740    2.1111333948   -0.2908349110
H        1.3394494524    0.4318670951   -0.8053480698
H       -1.1197299657    0.9398287333   -0.8864656003
H       -2.3538881110    0.8909521484    1.1651960412
H       -0.6001325186   -0.0128160511    3.0490798161
H       -1.1804465934    1.6319928825    3.2627205718
24   
Iteration 6 Energy -0.01567331
C        0.9270525030    1.1020018139   -0.0198406004
C       -0.5999219042    0.9879181461    0.0886943333
C       -1.2550979894    0.9248872964    1.2761511697
C       -0.5611186652    0.9744298418    2.6432365370
C        0.8338473055    1.5504053422    2.4114036457
H        0.7271890158    2.5867531996    2.0782119620
C        1.5068679231    0.6770102748    1.3277903126
H        1.2859978630   -0.3840856262    1.4740367123
C        2.9858125305    0.8075975802    1.6349786300
O        3.9162752302    0.4067788737    0.9396538123
N        3.0771076115    1.2998535865    2.9175875471
C        1.8713483298    1.5928077725    3.5150966225
O        1.6709550124    1.9002056922    4.6881222552
S        4.5063464094    1.0406426161    3.8698606586
C        4.4013123016   -0.6156893565    4.6307892031
Cl       3.9350623792   -1.8950132221    3.4756583009
Cl       6.0079376059   -1.0096063749    5.2989813957
Cl       3.2152058961   -0.5471539200    5.9607958706
H        1.2097156492    2.1276124390   -0.2682966680
H        1.3129463759    0.4581430480   -0.8137310577
H       -1.1689163090    0.9184240050   -0.8310891764
H       -2.3381347282    0.8774127825    1.2690302915
H       -0.5122836338   -0.0273601851    3.0765997435
H       -1.1155067124    1.6030243743    3.3442784988
24   
Iteration 7 Energy -0.01682808
C        0.9366414586    1.0558642169   -0.0105323524
C       -0.5937847742    0.9697727324    0.0858779229
C       -1.2766126351    0.9468154099    1.2593554806
C       -0.5999720054    1.0251335958    2.6359516329
C        0.8133687773    1.5659716023    2.4139368294
H        0.7370780418    2.5965878453    2.0591103651
C        1.4955971554    0.6637503856    1.3576219535
H        1.2683600355   -0.3911229710    1.5295152065
C        2.9729532040    0.7954458047    1.6858108595
O        3.9059758647    0.3966341415    0.9941538247
N        3.0499430977    1.2898529143    2.9682632800
C        1.8367594330    1.6134341073    3.5339603410
O        1.6171690666    1.9423713005    4.6965480749
S        4.4772895306    1.0667135730    3.9275348742
C        4.4596163442   -0.6289589516    4.5992285541
Cl       4.1460285742   -1.8471371396    3.3338452124
Cl       6.0632696447   -0.9362417240    5.3149095095
Cl       3.2180524371   -0.7409933080    5.8736063523
H        1.2371530376    2.0676066991   -0.2907991661
H        1.3191138704    0.3804021801   -0.7786610806
H       -1.1498742956    0.8779549586   -0.8389453963
H       -2.3591287998    0.9223909308    1.2301347652
H       -0.5822245492    0.0375253505    3.1017856339
H       -1.1527725141    1.6872263455    3.3057873228
24   
Iteration 8 Energy -0.01781458
C        0.9224416869    1.0481136926   -0.0266045127
C       -0.6097579267    1.0030184605    0.0797285801
C       -1.3070278499    0.9859785283    1.2451005480
C       -0.6274008570    1.0491971856    2.6236094614
C        0.8079980435    1.5440064071    2.4117084375
H        0.7765725251    2.5804148990    2.0735198803
C        1.4800103050    0.6475606857    1.3423295919
H        1.2490284359   -0.4041475173    1.5173173772
C        2.9619706503    0.7649267164    1.6749157768
O        3.8873000210    0.4349928988    0.9400314255
N        3.0413944658    1.2068128261    2.9767748036
C        1.8320168185    1.5502896890    3.5378753267
O        1.6128759619    1.8534670287    4.7058765658
S        4.4864561297    1.0454374577    3.9157977250
C        4.5156791447   -0.6211808153    4.6488376033
Cl       4.3034601287   -1.8639771455    3.3896951059
Cl       6.1079890349   -0.8218277830    5.4192873188
Cl       3.2377495557   -0.7636337851    5.8815918388
H        1.2501915467    2.0464409936   -0.3206017162
H        1.2770729092    0.3547078896   -0.7907447749
H       -1.1678716602    0.9196525910   -0.8433072047
H       -2.3879863316    0.9935606676    1.2039648245
H       -0.6477839521    0.0675785900    3.0996888879
H       -1.1623787860    1.7356098389    3.2816071297
24   
Iteration 9 Energy -0.01809702
C        0.9150701372    1.0194880508   -0.0206096643
C       -0.6204707492    1.0087733731    0.0595330552
C       -1.2974319411    1.0162037636    1.2366966030
C       -0.6435725870    1.0834271729    2.6250710568
C        0.8032848984    1.5427761989    2.4225249635
H        0.8051463265    2.5776310128    2.0798045433
C        1.4592800844    0.6294306631    1.3591561725
H        1.2147241900   -0.4152519975    1.5532638750
C        2.9421191271    0.7277867666    1.6954118463
O        3.8666312415    0.4219484675    0.9499237842
N        3.0226872296    1.1683047133    2.9978030641
C        1.8188428288    1.5337464630    3.5577374175
O        1.6017029941    1.8484908467    4.7224290247
S        4.4830527027    1.0563215945    3.9181025007
C        4.5556094290   -0.6139441138    4.6303963620
Cl       4.5976717415   -1.8107895363    3.3127611693
Cl       6.0573560938   -0.7093895489    5.5800494245
Cl       3.1552851280   -0.9000629977    5.6928571354
H        1.2722749151    2.0022315486   -0.3312349969
H        1.2581056234    0.3028078280   -0.7679985859
H       -1.1834971418    0.9238254407   -0.8601355708
H       -2.3779153954    1.0400850887    1.1954120949
H       -0.6925103806    0.1107943679    3.1165396300
H       -1.1734464961    1.7923648337    3.2625050950
24   
Iteration 10 Energy -0.01827165
C        0.9159521381    1.0229668793   -0.0183165596
C       -0.6166666564    1.0067762040    0.0760716295
C       -1.3055902440    1.0115721129    1.2459545704
C       -0.6365526060    1.0786273785    2.6268390661
C        0.8063038968    1.5460384092    2.4174360251
H        0.7994708516    2.5811598464    2.0727810392
C        1.4636079788    0.6323023192    1.3570313600
H        1.2186966284   -0.4127442408    1.5529583345
C        2.9455151888    0.7315803059    1.6885242654
O        3.8733132869    0.4121391694    0.9521487517
N        3.0271732950    1.1800887104    2.9878351576
C        1.8227285680    1.5410541837    3.5495635302
O        1.6070151311    1.8583130462    4.7145309654
S        4.4861724804    1.0573945946    3.9118488603
C        4.5469407891   -0.6150814865    4.6231177702
Cl       4.6262380501   -1.8221868234    3.3151617196
Cl       6.0202596250   -0.7138875991    5.6176993617
Cl       3.1161324604   -0.8997129611    5.6457491377
H        1.2693571622    2.0081556338   -0.3267887462
H        1.2574433188    0.3090511476   -0.7696078914
H       -1.1767556934    0.9268937316   -0.8464871548
H       -2.3869318770    1.0276866085    1.2057808602
H       -0.6753170178    0.1047826722    3.1176572882
H       -1.1645067550    1.7840301575    3.2705106588
24   
Iteration 11 Energy -0.01828879
C        0.9174715308    1.0297031421   -0.0212343479
C       -0.6151550889    1.0076740780    0.0716021687
C       -1.3021487031    1.0055690497    1.2425834499
C       -0.6351545769    1.0708868576    2.6242344942
C        0.8060007984    1.5440573006    2.4174924663
H        0.7970180496    2.5809694421    2.0779792803
C        1.4665025625    0.6378809024    1.3530096126
H        1.2264719410   -0.4085603956    1.5481952908
C        2.9480418658    0.7405561297    1.6845037146
O        3.8775990721    0.4280370548    0.9469257507
N        3.0275523918    1.1807885851    2.9865983142
C        1.8219370769    1.5348527900    3.5497499849
O        1.6048028210    1.8385369832    4.7185450214
S        4.4856411020    1.0572438779    3.9137281137
C        4.5421380463   -0.6126975815    4.6317165734
Cl       4.5067028955   -1.8320154255    3.3326166064
Cl       6.0667597604   -0.7517929692    5.5405714998
Cl       3.1634984214   -0.8448792002    5.7361303294
H        1.2705651100    2.0151630466   -0.3293292889
H        1.2601078339    0.3160011817   -0.7722548968
H       -1.1752453939    0.9300115565   -0.8512156711
H       -2.3836595926    1.0165893354    1.2032775803
H       -0.6717330552    0.0971678296    3.1156000068
H       -1.1657148690    1.7752564291    3.2669739463
24   
Iteration 12 Energy -0.01830037
C        0.9162774045    1.0265838433   -0.0204625846
C       -0.6165445834    1.0061894940    0.0720188744
C       -1.3029309039    1.0073719306    1.2433826488
C       -0.6362987589    1.0750951203    2.6252045158
C        0.8055357848    1.5461555038    2.4175795379
H        0.7976724014    2.5822761506    2.0757743240
C        1.4649638059    0.6370889954    1.3547173795
H        1.2240889098   -0.4088127324    1.5516424075
C        2.9465793121    0.7392106880    1.6861644394
O        3.8753245384    0.4247460611    0.9483186882
N        3.0266704137    1.1803242870    2.9879247962
C        1.8215082582    1.5379983371    3.5500157642
O        1.6041845918    1.8465813634    4.7175491121
S        4.4855573460    1.0561951335    3.9142473047
C        4.5456464022   -0.6152675736    4.6286936815
Cl       4.5597442255   -1.8287291755    3.3239765836
Cl       6.0497892859   -0.7371284705    5.5734190890
Cl       3.1452158010   -0.8721105769    5.6997206736
H        1.2703461595    2.0109454659   -0.3309016846
H        1.2583781062    0.3107309104   -0.7696578443
H       -1.1768680675    0.9269906183   -0.8504822117
H       -2.3843782091    1.0200935637    1.2041342212
H       -0.6743956860    0.1026794568    3.1190081462
H       -1.1660665382    1.7817916057    3.2660121375
24   
Iteration 13 Energy -0.01830134
C        0.9163233642    1.0259822533   -0.0203549849
C       -0.6164520997    1.0059850576    0.0721906264
C       -1.3031257214    1.0073529838    1.2433605463
C       -0.6365716015    1.0757381272    2.6251924930
C        0.8054281192    1.5465952914    2.4178443709
H        0.7979454713    2.5827539069    2.0761737429
C        1.4648665909    0.6373553575    1.3550854844
H        1.2240559733   -0.4084590363    1.5526010235
C        2.9464406234    0.7391603972    1.6866047184
O        3.8752008317    0.4247740493    0.9486434738
N        3.0262800785    1.1804632886    2.9882747975
C        1.8211014603    1.5376453171    3.5506403106
O        1.6038020721    1.8461165052    4.7183089110
S        4.4853908187    1.0565872412    3.9145777792
C        4.5462567121   -0.6153914121    4.6277023481
Cl       4.5659781465   -1.8276589583    3.3219562414
Cl       6.0477695405   -0.7357723554    5.5768027995
Cl       3.1430224304   -0.8752654807    5.6943139437
H        1.2710830138    2.0097015192   -0.3320294540
H        1.2579229712    0.3089134569   -0.7686166049
H       -1.1766588655    0.9268596062   -0.8503824825
H       -2.3845602274    1.0200385156    1.2038898090
H       -0.6751977802    0.1040342421    3.1203584900
H       -1.1663019222    1.7834901266    3.2648616167
24   
Iteration 14 Energy -0.01830173
C        0.9163285887    1.0258373886   -0.0203480942
C       -0.6164053645    1.0052437142    0.0723463591
C       -1.3029845173    1.0063533336    1.2435574866
C       -0.6364584592    1.0758440360    2.6253343220
C        0.8053375297    1.5474090683    2.4179297275
H        0.7975090315    2.5835857263    2.0763307378
C        1.4651249020    0.6383675012    1.3552651741
H        1.2249916714   -0.4075375043    1.5532044357
C        2.9467194548    0.7405058464    1.6866267176
O        3.8757204295    0.4262046062    0.9488250759
N        3.0265274956    1.1815117695    2.9883886811
C        1.8211211821    1.5381413612    3.5506102204
O        1.6036839796    1.8460987562    4.7184941473
S        4.4854334156    1.0564427668    3.9151634303
C        4.5458954234   -0.6161164408    4.6270718931
Cl       4.5666061414   -1.8276910344    3.3206912931
Cl       6.0466563272   -0.7371861957    5.5772924381
Cl       3.1418488217   -0.8766567624    5.6924597721
H        1.2711331608    2.0091330003   -0.3333024122
H        1.2578017313    0.3077477493   -0.7676925026
H       -1.1766465693    0.9259920324   -0.8501956899
H       -2.3844281791    1.0184087250    1.2041171542
H       -0.6750060596    0.1049143129    3.1220328913
H       -1.1665101372    1.7844462432    3.2637967414
24   
Iteration 15 Energy -0.01830178
C        0.9164428751    1.0258816545   -0.0203430384
C       -0.6162720410    1.0048887205    0.0724430401
C       -1.3027802680    1.0058229429    1.2436917938
C       -0.6362135985    1.0756588783    2.6254342822
C        0.8054622706    1.5476193492    2.4180118802
H        0.7973895203    2.5838028769    2.0764477384
C        1.4653866878    0.6387240542    1.3552927996
H        1.2255486943   -0.4072575644    1.5531891754
C        2.9469456658    0.7411076031    1.6865691672
O        3.8758534446    0.4267991878    0.9486615358
N        3.0266341698    1.1820912147    2.9883271831
C        1.8212498152    1.5385246825    3.5507447075
O        1.6037907860    1.8462452855    4.7186791548
S        4.4853623707    1.0563866106    3.9152222147
C        4.5452583778   -0.6163122660    4.6268575573
Cl       4.5644979504   -1.8277622904    3.3203409107
Cl       6.0465521249   -0.7382708524    5.5761154903
Cl       3.1417394456   -0.8762112950    5.6930957972
H        1.2709899303    2.0091937459   -0.3335323683
H        1.2580075116    0.3077057597   -0.7675626116
H       -1.1765530144    0.9255285022   -0.8500658651
H       -2.3842287029    1.0176086952    1.2042926591
H       -0.6745939568    0.1048850223    3.1224492610
H       -1.1664700594    1.7843394824    3.2636375349
24   
Iteration 16 Energy -0.01830179
C        0.9164605327    1.0258827185   -0.0203314613
C       -0.6162550235    1.0048031478    0.0724775321
C       -1.3027342230    1.0057157919    1.2437459823
C       -0.6361512393    1.0756117923    2.6254781577
C        0.8054907748    1.5476509622    2.4180156464
H        0.7973680957    2.5838351150    2.0764607732
C        1.4654403683    0.6387887941    1.3553102366
H        1.2256492723   -0.4072080762    1.5531721012
C        2.9470138292    0.7412064077    1.6865587148
O        3.8759295625    0.4269330049    0.9486684301
N        3.0267634535    1.1822707486    2.9882959380
C        1.8213330853    1.5386001274    3.5506881240
O        1.6038658763    1.8462679718    4.7186128772
S        4.4853980977    1.0563751525    3.9152266061
C        4.5450630779   -0.6163443205    4.6268232539
Cl       4.5640265430   -1.8277425348    3.3202572281
Cl       6.0464354230   -0.7384886034    5.5759252451
Cl       3.1416139026   -0.8761109460    5.6931822831
H        1.2708904757    2.0092355899   -0.3335206724
H        1.2580713114    0.3077502195   -0.7675706351
H       -1.1765546512    0.9253947671   -0.8500154696
H       -2.3841833107    1.0174541962    1.2043628712
H       -0.6744777160    0.1048476314    3.1225138558
H       -1.1664575181    1.7842703425    3.2636623816
