304  
Iteration 240 Energy -7436.60156678
N       -6.2126911779    5.5555259548    1.8767235615
C       -6.8812933740    5.2277538201    0.5562937727
C       -6.0940014110    4.1072017164   -0.1088264897
O       -6.3011754335    2.9143010419    0.2410867449
C       -6.9931053145    6.5145337761   -0.2554473382
C       -7.7909610358    7.5584031357    0.5057430119
O       -7.7297627068    7.6408070370    1.7659403881
N       -8.5215366435    8.3921369578   -0.2331069890
H       -6.3203940022    4.7867926574    2.5531268298
H       -5.1639536381    5.7449147230    1.6981739168
H       -6.7298757585    6.4397502129    2.1927987176
H       -7.8696602050    4.8242282124    0.7893048397
H       -5.9894213694    6.9271987323   -0.4404314867
H       -7.4571461808    6.2942143686   -1.2204555472
H       -8.5838755698    8.3068584944   -1.2420809511
H       -9.0372917010    9.1420707815    0.2191711800
N       -5.1749711839    4.4543291444   -1.0233702560
C       -4.4373812187    3.3806049835   -1.6760615491
C       -3.3457186668    2.7976879503   -0.7803244211
O       -2.7152169560    1.7746916535   -1.1570639826
C       -3.9906755631    3.7090021951   -3.1031357813
C       -3.2516664260    5.0377016148   -3.2945421424
C       -1.9311655218    5.0569330537   -2.5243890734
C       -2.9850452224    5.2410511299   -4.7935469552
H       -4.8065365164    5.4322473364   -1.0847922466
H       -5.1424733682    2.5388914250   -1.7502381561
H       -3.3418034951    2.8852945437   -3.4295253039
H       -4.8856887234    3.7021443225   -3.7388245822
H       -3.8747120661    5.8629117241   -2.9294248347
H       -2.0896393116    4.9484778041   -1.4485451386
H       -1.2850652613    4.2395558401   -2.8685589926
H       -1.4152479422    6.0107929695   -2.6827993699
H       -2.3626005903    4.4199726809   -5.1735439115
H       -3.9234183522    5.2596012478   -5.3617486893
H       -2.4538308729    6.1853023873   -4.9628683764
N       -3.2456705206    3.3229917235    0.4433113625
C       -2.5926928053    2.6034999063    1.5286520601
C       -3.1868965099    1.2097874502    1.6513309908
O       -2.4735543080    0.2242399330    1.9814160733
C       -2.8643547859    3.3973250713    2.8287036178
C       -2.1667936402    2.7714602501    4.0017614932
C       -2.8234497800    1.8452895942    4.8162693875
C       -0.8286891213    3.0769321509    4.2737715569
C       -2.1567076705    1.2021418187    5.8510174237
C       -0.1610870152    2.4392881978    5.3155945954
C       -0.8116941302    1.4770410394    6.0859251536
O       -0.1718440654    0.7231691366    7.0587691730
H       -3.5842363955    4.2795539887    0.6695254975
H       -1.5151857905    2.5037297436    1.3779590191
H       -2.4937080337    4.4096893773    2.6443523181
H       -3.9500832927    3.4278571952    2.9837027471
H       -3.8653737821    1.6144172735    4.6286348836
H       -0.3207844866    3.8062233251    3.6481413912
H       -2.6568017541    0.4734855583    6.4746911729
H        0.8798318557    2.6624730872    5.5111936584
H        0.7316309455    1.0865835012    7.2462306329
N       -4.5113107685    1.0893321887    1.4550087588
C       -5.1094416333   -0.2342299462    1.6471557335
C       -4.6320129412   -1.1691770298    0.5391890086
O       -4.3328941408   -2.3736349644    0.7203944131
C       -6.6511884350   -0.1878754413    1.6215684579
C       -7.2216443850    0.8858698262    2.5689909027
C       -7.1822845903   -1.5837731000    1.9815764167
C       -6.6641910601    0.8159018198    3.9938633895
H       -5.0904537131    1.8678758567    1.0976373556
H       -4.7589294550   -0.6517642735    2.5948970507
H       -6.9563684779    0.0675747093    0.5971583999
H       -7.0345170530    1.8731287867    2.1324713069
H       -8.3115668037    0.7466914568    2.5928678426
H       -6.7321512251   -2.3579069797    1.3515282640
H       -6.9386180357   -1.8168285032    3.0248475092
H       -8.2701781758   -1.6115879851    1.8598550579
H       -6.7936337328   -0.1797624024    4.4337151171
H       -5.5975137076    1.0554466581    3.9973828364
H       -7.1716454074    1.5427028868    4.6390624465
N       -4.6054850478   -0.6022581025   -0.6763763092
C       -4.1056799098   -1.3269425372   -1.8349303461
C       -2.6578741595   -1.7398317115   -1.5696258619
O       -2.2052742888   -2.8778191092   -1.8593606150
C       -4.1646557969   -0.3920037104   -3.0546087161
C       -4.0942167914   -1.2079025946   -4.3558159176
C       -5.3985657189   -1.9608814849   -4.5308746280
O       -5.5010254884   -3.2153891399   -4.4167775328
N       -6.4686901077   -1.1969592641   -4.7636610372
H       -4.8605227808    0.3717844356   -0.7847785635
H       -4.6898831773   -2.2357419401   -2.0079119086
H       -5.1103756039    0.1636304131   -3.0210863702
H       -3.3556338247    0.3389347809   -2.9816586573
H       -3.9331596930   -0.5400867291   -5.2088198215
H       -3.2739733998   -1.9291354849   -4.2981755038
H       -6.4030856465   -0.1889401205   -4.8573429842
H       -7.3838441677   -1.6285589798   -4.8588601450
N       -1.9093643266   -0.7869166368   -1.0157078969
C       -0.5255466368   -1.0494891149   -0.6416883771
C       -0.4450825089   -2.2295026406    0.3177391400
O        0.4034695668   -3.1460138219    0.1495152916
C       -0.0155304518    0.2121520856    0.0728566493
C        1.3686859339    0.0786350249    0.6036143171
C        2.5403807335    0.1148726110   -0.1191595985
C        1.7433832715    0.0258859565    1.9930992949
N        3.6233724704    0.1073899922    0.7367772390
C        3.1725330990    0.0531174879    2.0314232345
C        1.0208617212   -0.0188011395    3.1966289953
C        3.8730187126    0.0389476975    3.2376776871
C        1.7255046643   -0.0569877304    4.3937418998
C        3.1376994415   -0.0240461745    4.4137328911
H       -2.2626364179    0.1797276526   -0.9161218075
H        0.0984003377   -1.2957436662   -1.5073440767
H       -0.0968275432    1.0499763341   -0.6297881885
H       -0.7057787930    0.4053308583    0.8978472452
H        2.6629004623    0.1592432435   -1.1858371925
H        4.6193770718    0.1233282441    0.4765217178
H       -0.0643324711   -0.0030679898    3.1825220276
H        4.9549385985    0.0866445581    3.2454701269
H        1.1871613946   -0.0784485263    5.3336793059
H        3.6560039871   -0.0272729732    5.3679448509
N       -1.3220210345   -2.2063887530    1.3288282892
C       -1.3770273096   -3.3168167357    2.2763046247
C       -1.6329439839   -4.6285557355    1.5443239442
O       -0.9345809003   -5.6521545329    1.7594554693
C       -2.5318796363   -3.1426349693    3.2759300339
C       -2.3562475680   -2.0457930624    4.3383205214
C       -3.6403273804   -2.0247556272    5.1853396182
C       -1.1368013966   -2.3129845938    5.2277200405
H       -1.9390940535   -1.3955839634    1.4727122397
H       -0.4197921254   -3.4404634010    2.7922572852
H       -3.4400444621   -2.9496824745    2.6928992186
H       -2.6577158542   -4.1014983433    3.8001998026
H       -2.2495378980   -1.0769294013    3.8381814024
H       -4.5107745961   -1.7789533055    4.5632014088
H       -3.8029177733   -3.0119378587    5.6384487493
H       -3.5686145244   -1.2843180485    5.9879016970
H       -1.2599528475   -3.2745203856    5.7447518783
H       -0.2122097758   -2.3481359998    4.6394478180
H       -1.0207372183   -1.5208238882    5.9780191086
N       -2.6982317991   -4.6488607710    0.7227272862
C       -3.0376736041   -5.9430636612    0.1298060201
C       -1.8762606405   -6.4227284761   -0.7372410966
O       -1.6866193825   -7.6317864859   -0.9881517785
C       -4.3566078975   -5.9028393689   -0.6730583854
C       -4.2282495971   -5.2030169166   -2.0360153615
C       -3.5857267392   -6.0966764479   -3.1286736117
C       -2.7514679074   -5.2792285712   -4.1213418916
N       -3.6175729295   -4.8260572340   -5.2825251129
H       -3.2798455522   -3.8120026658    0.5720411078
H       -3.1283933764   -6.6839452575    0.9327318760
H       -4.6926272749   -6.9388329087   -0.8051474855
H       -5.1007882221   -5.3867316417   -0.0523635793
H       -5.2097808999   -4.8565434011   -2.3804487315
H       -3.6041800664   -4.3160801187   -1.9024247551
H       -2.9358333696   -6.8496044791   -2.6754639103
H       -4.3651054768   -6.6527674326   -3.6687823094
H       -2.4044757975   -4.3634555997   -3.6408012845
H       -1.8844403233   -5.8079833220   -4.5278264603
H       -4.0421105874   -5.6339151365   -5.7603765299
H       -4.3959556652   -4.1759875633   -4.9099462307
H       -3.0606749837   -4.3017367028   -5.9734495993
N       -1.1252559350   -5.4280254396   -1.2448474312
C        0.0025906910   -5.7032393546   -2.1000767631
C        1.2400050410   -6.1705446670   -1.3528768962
O        2.2663434226   -6.4797197478   -2.0028926132
C        0.4089213675   -4.4569350404   -2.8921948329
C        1.0089719414   -4.8936299778   -4.2246015677
O        0.4764167900   -5.8553314246   -4.8404989876
O        2.0264427707   -4.2176878472   -4.6633043314
H       -1.3784007204   -4.4504504097   -1.0992053959
H       -0.2494247989   -6.4791095296   -2.8315491832
H       -0.4886586237   -3.8594534058   -3.0807352937
H        1.0891470262   -3.8319047633   -2.3183644458
N        1.1762299711   -6.1863619167   -0.0043364368
C        2.3611955444   -6.5424383030    0.7480398470
C        2.8679035040   -5.4698521373    1.6904344111
O        3.9191585441   -5.6816185333    2.3611476664
H        0.3075192228   -5.9768544574    0.5074510667
H        2.2165307952   -7.4561921869    1.3376627402
H        3.1488183929   -6.7273325058    0.0081569464
N        2.1778589450   -4.3287647018    1.7809669024
C        2.7188263201   -3.2791250896    2.6420054450
C        4.0419927690   -2.8446074525    2.0447870250
O        4.1636402928   -2.6881986430    0.8002771764
H        1.3985573419   -4.0742353883    1.1457317521
H        2.0282592197   -2.4301653350    2.6296422906
H        2.8436752200   -3.6514294058    3.6597545368
N        5.1095410265   -2.7153446968    2.8369783042
C        6.4058918713   -2.4032435950    2.2122328183
C        6.6699049570   -3.3587658755    1.0628940959
O        7.2698500893   -2.9880918474    0.0158446441
C        7.3940945873   -2.6150900285    3.3806125040
C        6.5553999570   -2.2448598211    4.6203064598
C        5.1790964620   -2.8560402914    4.3064958830
H        6.4310152406   -1.3870566605    1.8082262598
H        7.6682780375   -3.6755194300    3.4238245693
H        8.2921055767   -2.0044060668    3.2671312727
H        6.9779813215   -2.6394321200    5.5471323664
H        6.4611074529   -1.1551572821    4.6920167310
H        5.1363884214   -3.9175069289    4.5755149218
H        4.3617357135   -2.3045463026    4.7762389883
N        6.2863645081   -4.6284414467    1.2718267002
C        6.5441062683   -5.6692210328    0.2925334234
C        5.6952282315   -5.5609049947   -0.9716954984
O        5.8874345132   -6.3411892468   -1.9256526211
C        6.3446135401   -7.0489235562    0.9261554263
O        7.2487336370   -7.2717949125    2.0330424309
H        5.6299212584   -4.8696703963    2.0246135728
H        7.5817453700   -5.5746840809   -0.0559452568
H        5.3410703738   -7.0750725869    1.3578071157
H        6.4350987331   -7.7936380510    0.1257461413
H        8.1694128954   -7.3010843754    1.6635886830
N        4.8193475778   -4.5381508461   -1.0067593301
C        4.2858183393   -4.1222708891   -2.2893740483
C        5.4269610183   -3.7219041029   -3.2141730129
O        5.2882673250   -3.7315643200   -4.4645619381
C        3.4364789023   -2.8483109190   -2.0644474501
O        2.8874526241   -2.3525442012   -3.2960261885
H        4.6340455125   -3.9181355140   -0.2018573087
H        3.6800642240   -4.8953865399   -2.7634317501
H        2.6584636914   -3.0626360368   -1.3176642908
H        4.0890018185   -2.0804233398   -1.6380728926
H        2.4828212529   -3.1884403400   -3.9075971063
N        6.5245703537   -3.2758180672   -2.5836419021
C        7.6475802297   -2.7053461997   -3.3024931732
C        7.7241005085   -1.1881103294   -3.1494277869
O        8.1294101404   -0.4671758961   -4.0863939549
H        6.6299539015   -3.3423427159   -1.5590134742
H        8.5847703736   -3.1479151274   -2.9433499554
H        7.5295145939   -2.9121360909   -4.3674621296
N        7.3426870486   -0.6859228042   -1.9535267280
C        7.3127931479    0.7651644107   -1.7990742118
C        6.9423947807    1.0986049091   -0.3690338211
O        6.3362878049    0.2667269356    0.3666487619
C        6.2287854892    1.3504209157   -2.7401259620
C        4.8283222392    0.9096721032   -2.3134602495
C        3.8635844337    0.8085433312   -3.5001892481
N        4.1793725067   -0.3617247528   -4.3300741335
C        4.9667708397   -0.3446055906   -5.4031985634
N        5.3591543935    0.8084949491   -5.9789430171
N        5.3614948336   -1.5023435224   -5.9444596908
H        7.1249928200   -1.2752229544   -1.1428945743
H        8.2902770475    1.1826655761   -2.0660933355
H        6.2858902815    2.4431879681   -2.7546461326
H        6.4831531249    0.9845419218   -3.7365624140
H        4.8982703876   -0.0867200369   -1.8611076210
H        4.4491825139    1.6049991781   -1.5548983307
H        2.8385574679    0.6584507937   -3.1440639978
H        3.8631577322    1.7342810783   -4.0850574806
H        3.7195420368   -1.2761330751   -3.9808931273
H        4.9794475103    1.7020720137   -5.6978757424
H        6.0476993552    0.8044046913   -6.7222847844
H        5.2919529057   -2.3912661019   -5.4074368436
H        5.8688980534   -1.5014638979   -6.8219330748
N        7.2385995325    2.3294150441    0.0543822372
C        6.7920281605    2.7903660627    1.3784521608
C        5.2734915826    2.9487745259    1.3864719067
O        4.5959325733    2.9866412255    0.3344177416
C        7.4309074179    4.1982825243    1.4870430339
C        7.4568496660    4.6550477135    0.0203595944
C        7.9412369723    3.3959983364   -0.7036164152
H        7.1182540515    2.0945186834    2.1556510491
H        6.8428817275    4.8670033125    2.1204116067
H        8.4500632705    4.1164955204    1.8805578830
H        6.4345670727    4.8775458530   -0.3055820610
H        8.1071220666    5.5151596097   -0.1520035914
H        7.6622487297    3.3877129683   -1.7562733518
H        9.0250570909    3.2705385440   -0.6001434295
N        4.7351921567    3.1192425272    2.6066987286
C        3.2798716851    3.3034084858    2.7564425150
C        2.8314947317    4.5968103171    2.0883484592
O        3.3299922153    5.7014302349    2.3922962411
C        3.1022767513    3.4399560037    4.2857744146
C        4.4611537572    3.9809872110    4.7553980910
C        5.4421357205    3.1630023207    3.9078991877
H        2.7645503038    2.4282566089    2.3660987046
H        2.2707910664    4.1030621466    4.5381050904
H        2.9277431757    2.4418448369    4.6956375908
H        4.5343592920    5.0330465302    4.4654953190
H        4.6281526183    3.8564251029    5.8279740810
H        6.4178337553    3.6409874096    3.8150282609
H        5.5554566114    2.1480072771    4.3064436921
N        1.7958075129    4.4615795143    1.2257194128
C        1.2471030903    5.6100499989    0.5102574362
C       -0.1688199097    5.9107408624    1.0166160235
O       -0.6696435867    5.3615019097    2.0168792712
C        1.1980936299    5.0926434569   -0.9368004090
C        0.6952587928    3.6512852577   -0.7254175404
C        1.4258650579    3.1892144078    0.5538139676
H        1.8997191286    6.4748050181    0.6650680065
H        0.5433577499    5.6813987038   -1.5798132886
H        2.2145823511    5.0842241304   -1.3459759238
H       -0.3862836021    3.6622368523   -0.5569598087
H        0.9173104734    2.9980143873   -1.5736886712
H        0.7837121879    2.5775891077    1.1906929322
H        2.3406017992    2.6472975398    0.3129924575
N       -0.8047945994    6.8442543459    0.2735278918
C       -2.0394531671    7.5152203120    0.6911066184
C       -3.2952596305    6.6881269646    0.3670999829
O       -3.8795659050    6.8402081092   -0.7533963364
C       -2.0853653433    8.8243484940   -0.1249847870
O       -0.7497796461    9.2992265155   -0.4528284824
O       -3.6857072538    5.8575627590    1.2793297801
H       -0.2776658796    7.4324206938   -0.3824797276
H       -2.0219207692    7.6733750230    1.7740839104
H       -2.5594096516    8.5858696447   -1.0777493379
H       -2.6799083535    9.5761549431    0.4042672054
H       -0.3368080041    9.6542070071    0.3783532149
