13   
Scan Cycle 1/20 ; Dihedral 1-3-6-2 = 105.55, Dihedral 12-2-6-3 = 59.92, Dihedral 7-1-3-6 = -71.24, Dihedral 13-1-6-3 = -40.00 ; Iteration 3 Energy -681.04500504
C        1.8829453640    0.3826170075    1.3957151449
C       -0.0180669880   -1.5895612973   -1.0620057618
N        0.6399762949   -0.3732639580    1.2386651085
O        0.1411551274    0.9899059312   -0.8542576958
O       -1.6618121697   -0.1788418659    0.3787918039
S       -0.3172540271   -0.1394575558   -0.1037375101
H        2.6369721132    0.0383585293    0.6873093474
H        2.2496165934    0.1829258448    2.4017489084
H        1.7433713336    1.4553430564    1.2571430786
H       -0.6310391959   -1.5003382398   -1.9587996477
H        1.0366559537   -1.6283284751   -1.3300126905
H       -0.3104979466   -2.4592966549   -0.4779920016
H        0.0228773830    0.0672376375    1.9285319614
13   
Scan Cycle 2/20 ; Dihedral 1-3-6-2 = 105.55, Dihedral 12-2-6-3 = 59.92, Dihedral 7-1-3-6 = -71.24, Dihedral 13-1-6-3 = -35.79 ; Iteration 7 Energy -681.04910913
C        1.8781596923    0.3935023407    1.3856289157
C       -0.0178618352   -1.5863201833   -1.0563123066
N        0.6349986967   -0.3614015988    1.2399162504
O        0.1652762563    0.9893411273   -0.8606113775
O       -1.6612931674   -0.1576639910    0.3634104385
S       -0.3114789678   -0.1292271093   -0.1061323012
H        2.6259113023    0.0365667472    0.6773907792
H        2.2517763342    0.2013454315    2.3908201526
H        1.7423509780    1.4657165640    1.2401047843
H       -0.6254075730   -1.4972960985   -1.9568559083
H        1.0379572532   -1.6343444351   -1.3181663874
H       -0.3192893514   -2.4512515677   -0.4697489064
H        0.0138001995   -0.0216672659    1.9716559047
13   
Scan Cycle 3/20 ; Dihedral 1-3-6-2 = 105.55, Dihedral 12-2-6-3 = 59.92, Dihedral 7-1-3-6 = -71.24, Dihedral 13-1-6-3 = -31.58 ; Iteration 7 Energy -681.05180214
C        1.8749731320    0.4059334239    1.3784637566
C       -0.0199645419   -1.5839536815   -1.0512668067
N        0.6304025570   -0.3457131003    1.2387042915
O        0.1876262161    0.9880710658   -0.8680622969
O       -1.6611293707   -0.1377315719    0.3478457832
S       -0.3066552315   -0.1194721167   -0.1093347942
H        2.6196149421    0.0371626538    0.6734065908
H        2.2503225062    0.2205330998    2.3844478306
H        1.7443946618    1.4777121434    1.2261082308
H       -0.6241559378   -1.4961806075   -1.9542137774
H        1.0363197728   -1.6408038924   -1.3092185685
H       -0.3286965211   -2.4439914113   -0.4612335124
H        0.0118476295   -0.1142660396    2.0054533121
13   
Scan Cycle 4/20 ; Dihedral 1-3-6-2 = 105.55, Dihedral 12-2-6-3 = 59.92, Dihedral 7-1-3-6 = -71.24, Dihedral 13-1-6-3 = -27.37 ; Iteration 7 Energy -681.05325893
C        1.8741731380    0.4197557446    1.3754629508
C       -0.0249883929   -1.5828227721   -1.0472220466
N        0.6271521671   -0.3245703892    1.2329403427
O        0.2058592820    0.9860620776   -0.8786377403
O       -1.6611424183   -0.1201270368    0.3331778613
S       -0.3031937097   -0.1102659816   -0.1141017517
H        2.6205060459    0.0407577003    0.6777847296
H        2.2435174584    0.2391675481    2.3846077508
H        1.7510517309    1.4914517663    1.2173531687
H       -0.6291138059   -1.4983683755   -1.9505509252
H        1.0308962438   -1.6474994802   -1.3047851007
H       -0.3381224549   -2.4377164967   -0.4518870190
H        0.0183045034   -0.2085243449    2.0269578158
13   
Scan Cycle 5/20 ; Dihedral 1-3-6-2 = 105.55, Dihedral 12-2-6-3 = 59.92, Dihedral 7-1-3-6 = -71.24, Dihedral 13-1-6-3 = -23.16 ; Iteration 7 Energy -681.05378541
C        1.8749408478    0.4341857387    1.3758830819
C       -0.0323523231   -1.5826858797   -1.0437976496
N        0.6248299598   -0.3001817504    1.2244759045
O        0.2211972024    0.9837112088   -0.8906018468
O       -1.6613387140   -0.1042750279    0.3192646020
S       -0.3007177234   -0.1016588325   -0.1197499542
H        2.6269794996    0.0467315614    0.6889062819
H        2.2322276572    0.2580544186    2.3901244033
H        1.7598863807    1.5057588227    1.2121988899
H       -0.6387622378   -1.5027184132   -1.9460184521
H        1.0225037607   -1.6547086619   -1.3035056701
H       -0.3480907923   -2.4322971504   -0.4420563910
H        0.0335962699   -0.3026160720    2.0359768122
13   
Scan Cycle 6/20 ; Dihedral 1-3-6-2 = 105.55, Dihedral 12-2-6-3 = 59.92, Dihedral 7-1-3-6 = -71.24, Dihedral 13-1-6-3 = -18.95 ; Iteration 7 Energy -681.05370465
C        1.8763562147    0.4483799241    1.3787097137
C       -0.0411599771   -1.5831296417   -1.0404418422
N        0.6228835778   -0.2748030587    1.2152340238
O        0.2346073245    0.9816860191   -0.9023508023
O       -1.6617808493   -0.0894698749    0.3057453566
S       -0.2988963259   -0.0934548861   -0.1256653336
H        2.6367521395    0.0540006069    0.7045709674
H        2.2177626507    0.2777197796    2.3992565720
H        1.7687353268    1.5194776905    1.2087533358
H       -0.6510429520   -1.5080530665   -1.9407478220
H        1.0123061139   -1.6625511500   -1.3035878788
H       -0.3588987137   -2.4273080216   -0.4318324944
H        0.0572752603   -0.3951943632    2.0334561963
13   
Scan Cycle 7/20 ; Dihedral 1-3-6-2 = 105.55, Dihedral 12-2-6-3 = 59.92, Dihedral 7-1-3-6 = -71.24, Dihedral 13-1-6-3 = -14.74 ; Iteration 7 Energy -681.05327762
C        1.8775896662    0.4616382453    1.3829369324
C       -0.0504714296   -1.5837169053   -1.0365979392
N        0.6207231392   -0.2502878985    1.2068684977
O        0.2467529414    0.9806675806   -0.9126387214
O       -1.6625867528   -0.0750599021    0.2921866627
S       -0.2975102991   -0.0853686943   -0.1313654656
H        2.6475100788    0.0614116563    0.7225395445
H        2.2015587840    0.2983627206    2.4102462075
H        1.7760413054    1.5317156582    1.2053284677
H       -0.6638827253   -1.5133943841   -1.9348894893
H        1.0015124672   -1.6709909233   -1.3032353631
H       -0.3706351122   -2.4222398405   -0.4211427673
H        0.0882976763   -0.4854373502    2.0208633466
13   
Scan Cycle 8/20 ; Dihedral 1-3-6-2 = 105.55, Dihedral 12-2-6-3 = 59.92, Dihedral 7-1-3-6 = -71.24, Dihedral 13-1-6-3 = -10.53 ; Iteration 8 Energy -681.05267682
C        1.8780238827    0.4735003165    1.3877905568
C       -0.0595008321   -1.5841244906   -1.0318153561
N        0.6178446798   -0.2279045317    1.2006463842
O        0.2581683834    0.9810403905   -0.9207047148
O       -1.6638169345   -0.0604445486    0.2782470847
S       -0.2964048621   -0.0771919463   -0.1364665515
H        2.6573529259    0.0679924690    0.7409660769
H        2.1848101211    0.3200258847    2.4217590926
H        1.7808491047    1.5418896950    1.2006391671
H       -0.6757801054   -1.5180281558   -1.9284593107
H        0.9910727625   -1.6797900232   -1.3012719918
H       -0.3832200828   -2.4168003555   -0.4099830747
H        0.1255006751   -0.5728647438    1.9997525133
13   
Scan Cycle 9/20 ; Dihedral 1-3-6-2 = 105.55, Dihedral 12-2-6-3 = 59.92, Dihedral 7-1-3-6 = -71.24, Dihedral 13-1-6-3 = -6.32 ; Iteration 8 Energy -681.05199741
C        1.8772999695    0.4837785511    1.3927300329
C       -0.0678599238   -1.5841420917   -1.0258772289
N        0.6138956050   -0.2082070102    1.1971214417
O        0.2688591522    0.9830198636   -0.9262665194
O       -1.6656269004   -0.0453453611    0.2638674048
S       -0.2956625760   -0.0687728439   -0.1408118539
H        2.6652285743    0.0733141428    0.7586030026
H        2.1685525529    0.3421466653    2.4327842325
H        1.7829922149    1.5498925910    1.1944214056
H       -0.6855661881   -1.5217868592   -1.9217973951
H        0.9816270621   -1.6888338596   -1.2964496813
H       -0.3965636117   -2.4106686731   -0.3981773702
H        0.1677237991   -0.6570951536    1.9709523792
13   
Scan Cycle 10/20 ; Dihedral 1-3-6-2 = 105.55, Dihedral 12-2-6-3 = 59.92, Dihedral 7-1-3-6 = -71.24, Dihedral 13-1-6-3 = -2.11 ; Iteration 7 Energy -681.05127968
C        1.8751918239    0.4924913908    1.3974388672
C       -0.0751781382   -1.5836820818   -1.0186015737
N        0.6086370061   -0.1913635758    1.1966463800
O        0.2789154645    0.9864814808   -0.9295226950
O       -1.6680611419   -0.0296710999    0.2489735661
S       -0.2952715477   -0.0600069812   -0.1443644054
H        2.6703494741    0.0770541927    0.7746277845
H        2.1535855596    0.3640466337    2.4427000179
H        1.7823784881    1.5558415451    1.1869310064
H       -0.6927454349   -1.5245742339   -1.9148202895
H        0.9735722325   -1.6980305285   -1.2884432393
H       -0.4104611851   -2.4036792685   -0.3855709482
H        0.2139871300   -0.7376075148    1.9351053838
13   
Scan Cycle 11/20 ; Dihedral 1-3-6-2 = 105.55, Dihedral 12-2-6-3 = 59.92, Dihedral 7-1-3-6 = -71.24, Dihedral 13-1-6-3 = 2.11 ; Iteration 7 Energy -681.05052821
C        1.8715155354    0.4996429825    1.4017854544
C       -0.0814216932   -1.5827718101   -1.0099570607
N        0.6018570085   -0.1776869102    1.1997439089
O        0.2889394429    0.9908112922   -0.9304387776
O       -1.6709339193   -0.0128704485    0.2338703249
S       -0.2951931814   -0.0511230159   -0.1467356960
H        2.6720655342    0.0789895868    0.7884063514
H        2.1401290298    0.3859987264    2.4513259153
H        1.7788921431    1.5596707026    1.1776168568
H       -0.6969069125   -1.5260234253   -1.9077371658
H        0.9670139925   -1.7069259969   -1.2770804231
H       -0.4248288582   -2.3963170593   -0.3727467736
H        0.2637716165   -0.8140946650    1.8930469303
13   
Scan Cycle 12/20 ; Dihedral 1-3-6-2 = 105.55, Dihedral 12-2-6-3 = 59.92, Dihedral 7-1-3-6 = -71.24, Dihedral 13-1-6-3 = 6.32 ; Iteration 8 Energy -681.04972371
C        1.8663103064    0.5055853660    1.4058090316
C       -0.0865093926   -1.5815769588   -1.0000181645
N        0.5935678583   -0.1667164942    1.2061801341
O        0.2986254117    0.9956017821   -0.9299218912
O       -1.6742082938    0.0048816398    0.2185945387
S       -0.2954513875   -0.0421501518   -0.1482115354
H        2.6703951082    0.0792881286    0.8000180673
H        2.1286252319    0.4066476009    2.4585148289
H        1.7730125541    1.5620528783    1.1680551333
H       -0.6984454573   -1.5266990031   -1.9003163640
H        0.9619261525   -1.7155460885   -1.2627621901
H       -0.4394472295   -2.3886141799   -0.3595541381
H        0.3164988709   -0.8854545651    1.8447123866
13   
Scan Cycle 13/20 ; Dihedral 1-3-6-2 = 105.55, Dihedral 12-2-6-3 = 59.92, Dihedral 7-1-3-6 = -71.24, Dihedral 13-1-6-3 = 10.53 ; Iteration 7 Energy -681.04882622
C        1.8595753869    0.5103466392    1.4094303705
C       -0.0904838085   -1.5800783593   -0.9887298837
N        0.5836367761   -0.1584646494    1.2158700162
O        0.3078923796    1.0002657712   -0.9285600609
O       -1.6779347198    0.0236372257    0.2036067020
S       -0.2962566577   -0.0331131996   -0.1487391351
H        2.6652232245    0.0780297496    0.8091624491
H        2.1191131614    0.4254089961    2.4641675503
H        1.7651670553    1.5632123345    1.1587111543
H       -0.6969941730   -1.5265119013   -1.8927274804
H        0.9583594473   -1.7237756791   -1.2451433491
H       -0.4541252447   -2.3806472849   -0.3459894372
H        0.3717268972   -0.9510096890    1.7900409547
13   
Scan Cycle 14/20 ; Dihedral 1-3-6-2 = 105.55, Dihedral 12-2-6-3 = 59.92, Dihedral 7-1-3-6 = -71.24, Dihedral 13-1-6-3 = 14.74 ; Iteration 8 Energy -681.04777230
C        1.8514753969    0.5142002350    1.4129706582
C       -0.0937029981   -1.5785678940   -0.9764281961
N        0.5723261902   -0.1525669627    1.2286534523
O        0.3170400486    1.0040170134   -0.9267414175
O       -1.6818728363    0.0431344901    0.1892581159
S       -0.2975376771   -0.0244249330   -0.1483345550
H        2.6566800157    0.0752155090    0.8163029626
H        2.1114968112    0.4421127627    2.4686891812
H        1.7558356283    1.5636135797    1.1501995454
H       -0.6931783021   -1.5257509654   -1.8851309511
H        0.9558750055   -1.7312966072   -1.2249166643
H       -0.4688481448   -2.3730740418   -0.3326368897
H        0.4293105754   -1.0093122301    1.7292145946
13   
Scan Cycle 15/20 ; Dihedral 1-3-6-2 = 105.55, Dihedral 12-2-6-3 = 59.92, Dihedral 7-1-3-6 = -71.24, Dihedral 13-1-6-3 = 18.95 ; Iteration 8 Energy -681.04646440
C        1.8421683964    0.5171886306    1.4166277161
C       -0.0962193408   -1.5771599672   -0.9632494767
N        0.5597099771   -0.1488521980    1.2440454151
O        0.3258144111    1.0061450994   -0.9254296622
O       -1.6860669492    0.0632545053    0.1760912141
S       -0.2994882702   -0.0161876754   -0.1471558731
H        2.6450901250    0.0710598514    0.8218010788
H        2.1055166648    0.4560808766    2.4723664550
H        1.7456954656    1.5635534118    1.1433896985
H       -0.6873133403   -1.5245514525   -1.8774057122
H        0.9543558615   -1.7381883089   -1.2025965769
H       -0.4832807703   -2.3660158069   -0.3194595713
H        0.4889174577   -1.0590270117    1.6620751208
13   
Scan Cycle 16/20 ; Dihedral 1-3-6-2 = 105.55, Dihedral 12-2-6-3 = 59.92, Dihedral 7-1-3-6 = -71.24, Dihedral 13-1-6-3 = 23.16 ; Iteration 7 Energy -681.04475684
C        1.8323678919    0.5195538832    1.4212957780
C       -0.0985769883   -1.5763043370   -0.9497997289
N        0.5464885345   -0.1464956300    1.2607775728
O        0.3334443083    1.0059703204   -0.9257932719
O       -1.6904834747    0.0830651825    0.1646582568
S       -0.3022655598   -0.0088639016   -0.1456084333
H        2.6317273595    0.0658403534    0.8273421739
H        2.1001905066    0.4669862814    2.4764830432
H        1.7366525111    1.5635767404    1.1394633559
H       -0.6808935639   -1.5236416308   -1.8695428691
H        0.9530562908   -1.7444496127   -1.1798797524
H       -0.4970886441   -2.3600858258   -0.3067261089
H        0.5502804816   -1.0978518667    1.5884298343
13   
Scan Cycle 17/20 ; Dihedral 1-3-6-2 = 105.55, Dihedral 12-2-6-3 = 59.92, Dihedral 7-1-3-6 = -71.24, Dihedral 13-1-6-3 = 27.37 ; Iteration 8 Energy -681.04244082
C        1.8225599059    0.5214085164    1.4272343005
C       -0.1011210375   -1.5762819025   -0.9363915496
N        0.5331750030   -0.1448662759    1.2775531172
O        0.3395650283    1.0030968022   -0.9285778642
O       -1.6952125745    0.1018421322    0.1551842123
S       -0.3060250594   -0.0026592844   -0.1440798675
H        2.6175376965    0.0597845327    0.8337682672
H        2.0948141368    0.4739665170    2.4816151276
H        1.7298420155    1.5641466566    1.1394737343
H       -0.6748181823   -1.5234603643   -1.8615000198
H        0.9515619698   -1.7500731275   -1.1577141304
H       -0.5099245312   -2.3556861982   -0.2944056792
H        0.6129452737   -1.1239180444    1.5089401918
13   
Scan Cycle 18/20 ; Dihedral 1-3-6-2 = 105.55, Dihedral 12-2-6-3 = 59.92, Dihedral 7-1-3-6 = -71.24, Dihedral 13-1-6-3 = 31.58 ; Iteration 8 Energy -681.03925573
C        1.8139836004    0.5229917784    1.4355732360
C       -0.1045823704   -1.5776430297   -0.9238585182
N        0.5209951194   -0.1425988314    1.2919097895
O        0.3427763913    0.9972839707   -0.9351504819
O       -1.7004063725    0.1181051734    0.1479470016
S       -0.3109796201    0.0019785807   -0.1433166952
H        2.6050371302    0.0535289925    0.8435922917
H        2.0878957817    0.4767969105    2.4895993404
H        1.7278922203    1.5657606077    1.1447854382
H       -0.6713323674   -1.5250666434   -1.8532353063
H        0.9488926732   -1.7553294544   -1.1385456301
H       -0.5212915623   -2.3533477988   -0.2824571189
H        0.6760190099   -1.1351602973    1.4242564862
13   
Scan Cycle 19/20 ; Dihedral 1-3-6-2 = 105.55, Dihedral 12-2-6-3 = 59.92, Dihedral 7-1-3-6 = -71.24, Dihedral 13-1-6-3 = 35.79 ; Iteration 8 Energy -681.03494225
C        1.8078958049    0.5245696336    1.4470822973
C       -0.1095298751   -1.5808576235   -0.9129237688
N        0.5111975426   -0.1381913410    1.3010026292
O        0.3417033351    0.9888851776   -0.9465888447
O       -1.7061954361    0.1304950490    0.1430377834
S       -0.3172506589    0.0048093107   -0.1442346033
H        2.5968988013    0.0478334703    0.8589999720
H        2.0779473344    0.4750901534    2.5018885107
H        1.7330258642    1.5688861431    1.1567381994
H       -0.6725329081   -1.5295412820   -1.8446322145
H        0.9442478334   -1.7606853116   -1.1245427351
H       -0.5306624529   -2.3533269835   -0.2705271182
H        0.7381544389   -1.1306664394    1.3357997062
13   
Scan Cycle 20/20 ; Dihedral 1-3-6-2 = 105.55, Dihedral 12-2-6-3 = 59.92, Dihedral 7-1-3-6 = -71.24, Dihedral 13-1-6-3 = 40.00 ; Iteration 8 Energy -681.02934318
C        1.8053418549    0.5262795690    1.4621540357
C       -0.1163035188   -1.5860715250   -0.9039657703
N        0.5049321922   -0.1303966817    1.3024454732
O        0.3349453645    0.9783772411   -0.9642448946
O       -1.7126840047    0.1383877355    0.1403416268
S       -0.3249792335    0.0059565014   -0.1477285082
H        2.5953430273    0.0433702609    0.8814358993
H        2.0639012083    0.4685278692    2.5192641275
H        1.7465847151    1.5736699381    1.1764287165
H       -0.6797566511   -1.5378269897   -1.8355566253
H        0.9371784544   -1.7661204932   -1.1169565519
H       -0.5374833947   -2.3555582337   -0.2580875588
H        0.7978795990   -1.1112952341    1.2455698492
