8    
Scan Cycle 1/3 ; Dihedral 2-1-5-6 = 100.00 ; Iteration 13 Energy -78.79071135
C       -4.1334746458    0.7042127321   -0.0086294913
H       -3.3701475178    0.0616686942   -0.4310035537
H       -4.4500422228    1.4097069495   -0.7665990557
H       -4.9811744014    0.0726940677    0.2316442787
C       -3.6137112530    1.4313425523    1.2606849778
H       -3.3156011506    2.4480573828    1.0340742757
H       -4.3910369657    1.4900172929    2.0139871561
H       -2.7690520319    0.9120075392    1.6957673786
8    
Scan Cycle 2/3 ; Dihedral 2-1-5-6 = 110.00 ; Iteration 9 Energy -78.78987625
C       -4.1349353678    0.7019033821   -0.0083846107
H       -3.4035130364   -0.0056129098   -0.3797709717
H       -4.3608403600    1.4030165632   -0.8021313465
H       -5.0391582381    0.1451696862    0.2074462748
C       -3.6154805451    1.4325179598    1.2624400135
H       -3.4002594768    2.4737415286    1.0550290436
H       -4.3565976982    1.4092423594    2.0526032868
H       -2.7133043812    0.9698014772    1.6427009913
8    
Scan Cycle 3/3 ; Dihedral 2-1-5-6 = 120.00 ; Iteration 7 Energy -78.78956550
C       -4.1370125038    0.6990265037   -0.0064583483
H       -3.4433030184   -0.0692654929   -0.3254742768
H       -4.2661980133    1.3889356568   -0.8313984885
H       -5.0927550470    0.2236528513    0.1778879668
C       -3.6191060223    1.4333655460    1.2640025078
H       -3.4878676374    2.4924649461    1.0786348612
H       -4.3135051968    1.3270398320    2.0885700068
H       -2.6643416648    1.0344882586    1.5841763320
