30   
Iteration 182 Energy -1011.91933756
H       -2.2016064640   -3.9019639264    0.7283125150
C       -1.2512901481   -4.3365062510    0.4825250297
C       -0.1518159003   -4.7573951407    0.2037667586
C        1.1074190628   -5.1617388878   -0.1111652702
N        2.2026966536   -5.4684852845   -0.3830371851
H        4.8864126502    1.9134969069   -0.8260822335
C        4.1282555470    2.6618781490   -0.6806336108
C        3.2368725110    3.4636848631   -0.5149724800
C        2.1821691186    4.2955753700   -0.3148285905
N        1.2448919753    4.9724768589   -0.1349360325
H       -0.7409284198    4.4581483185    0.3215903715
C       -1.4907105405    3.7150716802    0.5189140622
C       -2.2695337805    2.8135784271    0.7303425468
C       -3.0939764829    1.7575561038    0.9610967397
N       -3.7738983517    0.8248442624    1.1556113666
H       -8.0676020316   -0.5031243175    1.9338647627
C       -7.1248314149   -0.9641409442    1.7628052259
C       -6.0514307245   -1.4811539984    1.5679873014
C       -4.8506318157   -2.0805452474    1.3510835279
N       -3.8267740404   -2.6108067947    1.1660129057
H        3.9871104991   -4.3236281014   -0.7518819655
C        4.4787923247   -3.3754841977   -0.8405834880
C        4.9565634597   -2.2675089245   -0.9241679306
C        5.4476553984   -1.0023741111   -1.0123657482
N        5.8415149440    0.0952668729   -1.0850662291
H       -1.8865220392   -1.1414329082    1.0184514131
C       -0.8624641046   -0.8953912683    0.8512588745
C        0.2964390845   -0.6156750255    0.6509860657
C        1.6019758731   -0.3132542095    0.4164414142
N        2.7246246812   -0.0587653210    0.2092139172
