304  
Iteration 239 Energy -7436.60156737
N       -6.2101135465    5.5593565499    1.8756631078
C       -6.8755954408    5.2348260898    0.5527918756
C       -6.0876249704    4.1147424071   -0.1123249869
O       -6.2963485210    2.9214689753    0.2352708595
C       -6.9839853235    6.5232953804   -0.2566870961
C       -7.7828386258    7.5664438057    0.5044001395
O       -7.7252991968    7.6460334606    1.7649580770
N       -8.5102028654    8.4026700181   -0.2348216365
H       -6.3204346186    4.7894496700    2.5502910120
H       -5.1607522103    5.7480046404    1.7001860862
H       -6.7273425993    6.4434549842    2.1920169098
H       -7.8649783198    4.8318586629    0.7824636385
H       -5.9793765817    6.9352783135   -0.4381480759
H       -7.4456037947    6.3053207074   -1.2233903270
H       -8.5697260615    8.3195466883   -1.2441456989
H       -9.0264343853    9.1522404342    0.2175146726
N       -5.1664859240    4.4627306959   -1.0244490194
C       -4.4283585233    3.3896113681   -1.6774914063
C       -3.3395568280    2.8037207156   -0.7802759560
O       -2.7097558520    1.7803322769   -1.1571483489
C       -3.9777700893    3.7204825988   -3.1028892385
C       -3.2409394007    5.0509619482   -3.2901956563
C       -1.9224906488    5.0718162636   -2.5165342222
C       -2.9706730889    5.2577254167   -4.7880599796
H       -4.7971148222    5.4404166295   -1.0831439240
H       -5.1340081906    2.5486966102   -1.7553051782
H       -3.3264164658    2.8983473200   -3.4283233261
H       -4.8708009260    3.7127573141   -3.7413528019
H       -3.8667815293    5.8741703568   -2.9253557880
H       -2.0829354216    4.9555460774   -1.4418325888
H       -1.2714667350    4.2599581358   -2.8644570597
H       -1.4109040497    6.0292044924   -2.6674359830
H       -2.3456165016    4.4385814252   -5.1679388385
H       -3.9074784453    5.2756793256   -5.3588707018
H       -2.4407516626    6.2032957944   -4.9540778232
N       -3.2411655313    3.3271135599    0.4443464724
C       -2.5903800632    2.6053682014    1.5294681492
C       -3.1864033561    1.2122232465    1.6495181622
O       -2.4746739011    0.2254881982    1.9794370517
C       -2.8628265245    3.3971909411    2.8305759683
C       -2.1665007742    2.7690350593    4.0031867622
C       -2.8245148979    1.8425282422    4.8162292633
C       -0.8282256774    3.0727929233    4.2763088994
C       -2.1589732996    1.1974976669    5.8505746069
C       -0.1617895534    2.4331832442    5.3176759948
C       -0.8138088355    1.4707126501    6.0865372209
O       -0.1753598668    0.7150565010    7.0589166464
H       -3.5792161695    4.2836061349    0.6716356515
H       -1.5128381375    2.5045655319    1.3798950463
H       -2.4917135040    4.4097692249    2.6483943839
H       -3.9486758652    3.4277950078    2.9847348274
H       -3.8665689216    1.6129030978    4.6277754909
H       -0.3192766641    3.8024659556    3.6520124299
H       -2.6601419785    0.4685952344    6.4730919412
H        0.8792550024    2.6550904944    5.5140654317
H        0.7284251659    1.0772380093    7.2472479444
N       -4.5107341323    1.0937962948    1.4514401455
C       -5.1108066898   -0.2291329922    1.6417551901
C       -4.6333530344   -1.1635963500    0.5334225984
O       -4.3358717542   -2.3685822840    0.7138611734
C       -6.6524582831   -0.1809349622    1.6146272468
C       -7.2227070919    0.8933234526    2.5616023174
C       -7.1853955432   -1.5763209606    1.9739400132
C       -6.6660270094    0.8232896519    3.9867706000
H       -5.0883945025    1.8734193529    1.0940131513
H       -4.7617848687   -0.6479339297    2.5895069296
H       -6.9563407286    0.0749578884    0.5899433842
H       -7.0346365147    1.8803781026    2.1250313768
H       -8.3127370478    0.7549069854    2.5849108763
H       -6.7343250959   -2.3509789471    1.3452001772
H       -6.9442564967   -1.8091073283    3.0178544868
H       -8.2730272614   -1.6034417105    1.8497628838
H       -6.7958967909   -0.1723251404    4.4266280134
H       -5.5993060579    1.0626408460    3.9907646343
H       -7.1736814808    1.5502233175    4.6316641820
N       -4.6050311374   -0.5955061678   -0.6815694055
C       -4.1050004196   -1.3195198685   -1.8404711754
C       -2.6579131306   -1.7342733598   -1.5742793715
O       -2.2062852993   -2.8724785304   -1.8647274817
C       -4.1618607020   -0.3830234952   -3.0590301454
C       -4.0903365235   -1.1971142539   -4.3613403557
C       -5.3951580709   -1.9485941606   -4.5388794316
O       -5.4994866317   -3.2028346786   -4.4233641328
N       -6.4636881878   -1.1834971946   -4.7750742366
H       -4.8587189504    0.3789923132   -0.7891838603
H       -4.6900115921   -2.2275030713   -2.0149792942
H       -5.1072738710    0.1731662177   -3.0259514945
H       -3.3524137549    0.3473221236   -2.9842364892
H       -3.9275232093   -0.5281694622   -5.2131061210
H       -3.2708187517   -1.9191804408   -4.3036057849
H       -6.3965082820   -0.1756528901   -4.8696145124
H       -7.3792200842   -1.6139524098   -4.8718407490
N       -1.9088619254   -0.7827775847   -1.0186609538
C       -0.5256648256   -1.0472690979   -0.6437130247
C       -0.4472007219   -2.2284474352    0.3143704512
O        0.4008440952   -3.1454020787    0.1459888280
C       -0.0147750194    0.2128726387    0.0728955977
C        1.3687673149    0.0768526315    0.6047437931
C        2.5411015908    0.1131219678   -0.1169843785
C        1.7422812975    0.0215529294    1.9944504970
N        3.6233853179    0.1034532377    0.7397868906
C        3.1714483924    0.0477338294    2.0339760846
C        1.0188437626   -0.0244659468    3.1973820335
C        3.8710087598    0.0314525244    3.2407405141
C        1.7225546050   -0.0645566692    4.3949778921
C        3.1347512934   -0.0324580665    4.4161451772
H       -2.2611277501    0.1841557626   -0.9182861528
H        0.0988260619   -1.2930922427   -1.5090989688
H       -0.0943166625    1.0516549750   -0.6287823238
H       -0.7055264462    0.4059591636    0.8974886771
H        2.6645052323    0.1591806166   -1.1834742080
H        4.6195931648    0.1193169447    0.4802887382
H       -0.0663343838   -0.0082769332    3.1825605185
H        4.9529633125    0.0782298004    3.2494145376
H        1.1834705124   -0.0869036622    5.3344653240
H        3.6523025456   -0.0372865872    5.3707611022
N       -1.3250420528   -2.2055902152    1.3246639441
C       -1.3820966111   -3.3169700185    2.2708575460
C       -1.6388791712   -4.6275383124    1.5370812762
O       -0.9417601608   -5.6521457590    1.7514984078
C       -2.5376962079   -3.1425269477    3.2695732666
C       -2.3615992006   -2.0473165858    4.3336197564
C       -3.6467226667   -2.0254326888    5.1790624274
C       -1.1437440523   -2.3177712219    5.2241648123
H       -1.9413728221   -1.3943241773    1.4689139648
H       -0.4254492182   -3.4422546461    2.7875051583
H       -3.4449739671   -2.9475422597    2.6858480363
H       -2.6653536286   -4.1018787907    3.7924966438
H       -2.2528348585   -1.0779578593    3.8348640619
H       -4.5158647954   -1.7766258813    4.5563103265
H       -3.8118441410   -3.0132208499    5.6299267962
H       -3.5745535138   -1.2868177567    5.9832643386
H       -1.2696504119   -3.2793766055    5.7404152346
H       -0.2185650515   -2.3546648611    4.6369280799
H       -1.0267029045   -1.5264268633    5.9751799561
N       -2.7034793168   -4.6457164494    0.7145585778
C       -3.0438045622   -5.9389350335    0.1199966008
C       -1.8820221388   -6.4189354566   -0.7463601806
O       -1.6929466686   -7.6279565590   -0.9978722726
C       -4.3619259851   -5.8963779530   -0.6841026315
C       -4.2315779246   -5.1955738696   -2.0463205851
C       -3.5889474485   -6.0890024165   -3.1390904238
C       -2.7538877772   -5.2714877019   -4.1309954923
N       -3.6195603697   -4.8164506996   -5.2917711797
H       -3.2840313569   -3.8080682458    0.5641853231
H       -3.1361691426   -6.6805562912    0.9220461710
H       -4.6991289240   -6.9318339941   -0.8173820541
H       -5.1060433595   -5.3798871777   -0.0636459784
H       -5.2124823246   -4.8479653422   -2.3913925663
H       -3.6068944768   -4.3092512194   -1.9115354843
H       -2.9396533370   -6.8425111377   -2.6859991528
H       -4.3683798592   -6.6443964935   -3.6798398250
H       -2.4060356912   -4.3564365506   -3.6497226922
H       -1.8873361486   -5.8007113852   -4.5378723767
H       -4.0452218011   -5.6234264071   -5.7701087894
H       -4.3968169108   -4.1655983325   -4.9184839963
H       -3.0620730789   -4.2923675382   -5.9824013219
N       -1.1299532761   -5.4244362984   -1.2528371025
C       -0.0017095735   -5.6999073485   -2.1074369721
C        1.2347693762   -6.1689656389   -1.3598077707
O        2.2612388105   -6.4784740842   -2.0094550605
C        0.4062478306   -4.4533540258   -2.8983366387
C        1.0071885514   -4.8896283250   -4.2304774757
O        0.4742549922   -5.8503054079   -4.8476445197
O        2.0258354761   -4.2144116588   -4.6676036827
H       -1.3826478042   -4.4467451811   -1.1070559468
H       -0.2537811740   -6.4749796638   -2.8397532155
H       -0.4907383107   -3.8551351830   -3.0873265873
H        1.0864056045   -3.8291574551   -2.3234987580
N        1.1700301732   -6.1860986682   -0.0113468081
C        2.3539969025   -6.5445141938    0.7414800242
C        2.8611846567   -5.4738090031    1.6857496114
O        3.9118927170   -5.6874830726    2.3567129988
H        0.3011639317   -5.9761116052    0.4999507412
H        2.2078816713   -7.4589437107    1.3297048201
H        3.1420198945   -6.7292303217    0.0019734283
N        2.1721865819   -4.3322129292    1.7776262667
C        2.7138889506   -3.2842850252    2.6402733867
C        4.0378658601   -2.8505573130    2.0442703839
O        4.1603771724   -2.6929469898    0.8000077965
H        1.3934521293   -4.0760375719    1.1423355707
H        2.0243327694   -2.4344958730    2.6286672739
H        2.8377829727   -3.6580371199    3.6576101317
N        5.1050848473   -2.7233681289    2.8372768010
C        6.4021792715   -2.4119858210    2.2137438130
C        6.6658373127   -3.3664052911    1.0634034618
O        7.2667334143   -2.9950938772    0.0171314041
C        7.3894717553   -2.6265706472    3.3824010153
C        6.5505303369   -2.2574973728    4.6222733400
C        5.1735485383   -2.8662018589    4.3066115438
H        6.4286854891   -1.3953361447    1.8109928462
H        7.6626939151   -3.6873106651    3.4240941769
H        8.2881555666   -2.0165972333    3.2703887272
H        6.9720221438   -2.6544257402    5.5485901005
H        6.4577897332   -1.1678002630    4.6960727307
H        5.1291234042   -3.9279865476    4.5741422593
H        4.3566863107   -2.3142169502    4.7766440393
N        6.2809363073   -4.6359327970    1.2706605730
C        6.5382618699   -5.6758208454    0.2903440855
C        5.6906587236   -5.5649216245   -0.9744894403
O        5.8830008266   -6.3440937511   -1.9293344535
C        6.3365513414   -7.0560974478    0.9221117513
O        7.2393599254   -7.2813565852    2.0295809375
H        5.6236264912   -4.8773858733    2.0226253643
H        7.5763336609   -5.5822317558   -0.0571119750
H        5.3325832553   -7.0816315761    1.3528117650
H        6.4269553802   -7.7999172079    0.1208556325
H        8.1603859205   -7.3110782993    1.6610168591
N        4.8156911670   -4.5413490327   -1.0089505537
C        4.2835069581   -4.1235443221   -2.2915514804
C        5.4257748441   -3.7231036410   -3.2149589925
O        5.2881343997   -3.7311625297   -4.4654719581
C        3.4349750868   -2.8491953141   -2.0658366077
O        2.8872279429   -2.3516682878   -3.2972854791
H        4.6301872724   -3.9221523294   -0.2034413146
H        3.6775614235   -4.8956747076   -2.7669411200
H        2.6562300681   -3.0637606541   -1.3198599009
H        4.0877501792   -2.0822301994   -1.6381692712
H        2.4825584109   -3.1864972694   -3.9102937298
N        6.5231654804   -3.2786728753   -2.5829239388
C        7.6476418545   -2.7088903775   -3.3000233515
C        7.7255823362   -1.1918399659   -3.1456285053
O        8.1321995556   -0.4704322279   -4.0816540313
H        6.6275748858   -3.3465992927   -1.5582784047
H        8.5838832670   -3.1528175353   -2.9400872321
H        7.5306353549   -2.9147326479   -4.3652953787
N        7.3437565106   -0.6903402957   -1.9495660537
C        7.3149444920    0.7606464613   -1.7939382835
C        6.9439166062    1.0932230731   -0.3638237866
O        6.3369660733    0.2610863211    0.3708869089
C        6.2319854835    1.3475533852   -2.7351437556
C        4.8309271630    0.9078857201   -2.3094037734
C        3.8665086753    0.8088455877   -3.4965627180
N        4.1817032065   -0.3606685869   -4.3277110969
C        4.9696506425   -0.3429404727   -5.4004296829
N        5.3630180197    0.8104947431   -5.9748235501
N        5.3639298151   -1.5003452733   -5.9427128755
H        7.1247452702   -1.2801474040   -1.1396756379
H        8.2929305102    1.1775602093   -2.0600259247
H        6.2901971209    2.4402753454   -2.7489233179
H        6.4864161863    0.9821551354   -3.7317356494
H        4.8996447873   -0.0889645941   -1.8578472935
H        4.4522396795    1.6029711530   -1.5503980791
H        2.8412659791    0.6590172099   -3.1409513739
H        3.8669104956    1.7353049036   -4.0802897427
H        3.7207689457   -1.2750929209   -3.9800228537
H        4.9837127944    1.7040148059   -5.6930192310
H        6.0518393789    0.8067276174   -6.7179116792
H        5.2934683027   -2.3897970193   -5.4067088481
H        5.8717671787   -1.4988169949   -6.8199328164
N        7.2404913277    2.3235661198    0.0606921085
C        6.7939110502    2.7836036678    1.3850968937
C        5.2754307698    2.9424267140    1.3934297634
O        4.5977132845    2.9818086089    0.3415449641
C        7.4329124476    4.1914422759    1.4948308529
C        7.4597294547    4.6490223642    0.0284200415
C        7.9444154818    3.3903077793   -0.6958850801
H        7.1201071311    2.0871640723    2.1617757998
H        6.8444851943    4.8598107732    2.1282177107
H        8.4518126604    4.1094047358    1.8889441406
H        6.4376329827    4.8717468361   -0.2979634177
H        8.1101657897    5.5091751998   -0.1431334874
H        7.6666979339    3.3827620616   -1.7488776445
H        9.0280646545    3.2643516226   -0.5911692414
N        4.7374115937    3.1117186432    2.6139498208
C        3.2822962501    3.2972433550    2.7641195952
C        2.8353669170    4.5918596441    2.0973013043
O        3.3355963867    5.6954852567    2.4020046113
C        3.1051218489    3.4325998575    4.2936175204
C        4.4645701803    3.9720393531    4.7634233526
C        5.4446714292    3.1539233238    3.9150333708
H        2.7659376543    2.4230542568    2.3729777842
H        2.2742539906    4.0961894439    4.5467260140
H        2.9298171781    2.4342979495    4.7027352210
H        4.5386655673    5.0242714818    4.4744029880
H        4.6316750961    3.8463605514    5.8358526331
H        6.4207355627    3.6311907735    3.8223228097
H        5.5572714970    2.1385184939    4.3127563921
N        1.7992025982    4.4588283528    1.2348706106
C        1.2521970399    5.6088030909    0.5204355273
C       -0.1633695918    5.9109846726    1.0267637640
O       -0.6654980298    5.3609808248    2.0259857471
C        1.2027046997    5.0929590631   -0.9271590977
C        0.6980598623    3.6520256831   -0.7173516230
C        1.4280919133    3.1876202863    0.5613267029
H        1.9060464435    6.4724512622    0.6761906923
H        0.5486650705    5.6831404359   -1.5695464677
H        2.2192233716    5.0837101262   -1.3362361673
H       -0.3834771309    3.6641059750   -0.5488460925
H        0.9193127409    2.9994264054   -1.5663384302
H        0.7853796460    2.5757127627    1.1973753999
H        2.3423585882    2.6451885835    0.3199021409
N       -0.7977543138    6.8466954569    0.2850982623
C       -2.0321888243    7.5176341176    0.7034047443
C       -3.2882638897    6.6927785844    0.3748820909
O       -3.8701296325    6.8478646666   -0.7464205483
C       -2.0758062973    8.8295753071   -0.1083145658
O       -0.7394368901    9.3036736109   -0.4341931502
O       -3.6812908282    5.8603658828    1.2844188752
H       -0.2697601806    7.4356292582   -0.3694805627
H       -2.0158613849    7.6718226676    1.7869416800
H       -2.5498421401    8.5949787127   -1.0620590247
H       -2.6694270167    9.5804907133    0.4232356733
H       -0.3261998993    9.6552794672    0.3983011686
